REMARK  0 active torsions:
REMARK  status: ('A' for Active; 'I' for Inactive)
REMARK       I    between atoms: N_1  and  CA_5 
REMARK       I    between atoms: CA_5  and  CB_9 
REMARK       I    between atoms: CA_5  and  C_7 
REMARK       I    between atoms: C_7  and  N_14 
REMARK       I    between atoms: CB_9  and  OG_12 
REMARK       I    between atoms: N_14  and  CA_16 
REMARK       I    between atoms: CA_16  and  CB_20 
REMARK       I    between atoms: CA_16  and  C_18 
REMARK       I    between atoms: C_18  and  N_28 
REMARK       I    between atoms: CB_20  and  OG1_26 
REMARK       I    between atoms: CB_20  and  CG2_22 
REMARK       I    between atoms: N_28  and  CA_30 
REMARK       I    between atoms: CA_30  and  CB_34 
REMARK       I    between atoms: CA_30  and  C_32 
REMARK       I    between atoms: C_32  and  N_48 
REMARK       I    between atoms: CB_34  and  CG_37 
REMARK       I    between atoms: N_48  and  CA_50 
REMARK       I    between atoms: CA_50  and  CB_54 
REMARK       I    between atoms: CA_50  and  C_52 
REMARK       I    between atoms: C_52  and  N_60 
REMARK       I    between atoms: CB_54  and  CG_57 
REMARK       I    between atoms: N_60  and  CA_62 
REMARK       I    between atoms: CA_62  and  C_64 
REMARK       I    between atoms: CA_62  and  CB_66 
REMARK       I    between atoms: C_64  and  N_75 
REMARK       I    between atoms: CB_66  and  CG_69 
REMARK       I    between atoms: CG_69  and  CD_72 
REMARK       I    between atoms: N_75  and  CA_77 
REMARK       I    between atoms: CA_77  and  C_79 
REMARK       I    between atoms: CA_77  and  CB_81 
REMARK       I    between atoms: C_79  and  N_91 
REMARK       I    between atoms: CB_81  and  CG1_83 
REMARK       I    between atoms: CB_81  and  CG2_87 
REMARK       I    between atoms: N_91  and  CA_93 
REMARK       I    between atoms: CA_93  and  CB_97 
REMARK       I    between atoms: CA_93  and  C_95 
REMARK       I    between atoms: C_95  and  N_111 
REMARK       I    between atoms: CB_97  and  CG_100 
REMARK       I    between atoms: N_111  and  CA_113 
REMARK       I    between atoms: CA_113  and  CB_117 
REMARK       I    between atoms: CA_113  and  C_115 
REMARK       I    between atoms: CB_117  and  CG_120 
REMARK       I    between atoms: CZ_125  and  OH_126 
REMARK       I    between atoms: N_132  and  CA_134 
REMARK       I    between atoms: CA_134  and  CB_138 
REMARK       I    between atoms: CA_134  and  C_136 
REMARK       I    between atoms: CB_138  and  CG_141 
REMARK       I    between atoms: CG_141  and  CD_144 
REMARK       I    between atoms: CD_144  and  CE_147 
REMARK       I    between atoms: CE_147  and  NZ_150 
ROOT
ATOM      1  N   SER C   1       3.569  10.245  15.174  1.00  0.00    -0.064 N 
ATOM      2  H   SER C   1       4.665   9.885  15.499  1.00  0.00     0.275 HD
ATOM      3  H2  SER C   1       3.538  10.018  13.997  1.00  0.00     0.275 HD
ATOM      4  H3  SER C   1       2.856   9.383  15.606  1.00  0.00     0.275 HD
ATOM      5  CA  SER C   1       3.063  11.615  15.582  1.00  0.00     0.195 C 
ATOM      6  HA  SER C   1       1.896  11.509  15.800  1.00  0.00     0.102 H 
ATOM      7  C   SER C   1       3.501  12.536  14.439  1.00  0.00     0.251 C 
ATOM      8  O   SER C   1       4.647  12.524  13.986  1.00  0.00    -0.271 OA
ATOM      9  CB  SER C   1       3.799  12.126  16.857  1.00  0.00     0.051 C 
ATOM     10  HB2 SER C   1       4.929  12.475  16.691  1.00  0.00     0.077 H 
ATOM     11  HB3 SER C   1       3.211  13.043  17.351  1.00  0.00     0.077 H 
ATOM     12  OG  SER C   1       3.745  11.228  17.951  1.00  0.00    -0.398 OA
ATOM     13  HG  SER C   1       4.651  11.436  18.688  1.00  0.00     0.209 HD
ATOM     14  N   THR C   2       2.645  13.462  14.123  1.00  0.00    -0.344 N 
ATOM     15  H   THR C   2       1.818  13.821  14.899  1.00  0.00     0.163 HD
ATOM     16  CA  THR C   2       2.846  14.378  12.987  1.00  0.00     0.113 C 
ATOM     17  HA  THR C   2       3.339  13.640  12.189  1.00  0.00     0.091 H 
ATOM     18  C   THR C   2       3.766  15.521  13.358  1.00  0.00     0.243 C 
ATOM     19  O   THR C   2       3.873  15.884  14.534  1.00  0.00    -0.271 OA
ATOM     20  CB  THR C   2       1.511  14.974  12.535  1.00  0.00     0.060 C 
ATOM     21  HB  THR C   2       1.638  14.639  11.389  1.00  0.00     0.086 H 
ATOM     22  CG2 THR C   2       1.338  16.467  12.238  1.00  0.00    -0.050 C 
ATOM     23 1HG2 THR C   2       0.903  16.644  11.132  1.00  0.00     0.031 H 
ATOM     24 2HG2 THR C   2       1.905  17.502  12.436  1.00  0.00     0.031 H 
ATOM     25 3HG2 THR C   2       0.377  16.678  12.926  1.00  0.00     0.031 H 
ATOM     26  OG1 THR C   2       0.350  14.155  12.516  1.00  0.00    -0.393 OA
ATOM     27  HG1 THR C   2      -0.355  14.407  13.435  1.00  0.00     0.210 HD
ATOM     28  N   PHE C   3       4.439  16.099  12.364  1.00  0.00    -0.346 N 
ATOM     29  H   PHE C   3       4.354  15.676  11.256  1.00  0.00     0.163 HD
ATOM     30  CA  PHE C   3       5.339  17.221  12.598  1.00  0.00     0.088 C 
ATOM     31  HA  PHE C   3       5.714  17.199  13.730  1.00  0.00     0.087 H 
ATOM     32  C   PHE C   3       4.656  18.540  12.260  1.00  0.00     0.221 C 
ATOM     33  O   PHE C   3       3.952  18.640  11.250  1.00  0.00    -0.278 OA
ATOM     34  CB  PHE C   3       6.594  17.094  11.732  1.00  0.00    -0.015 C 
ATOM     35  HB2 PHE C   3       7.450  16.796  12.514  1.00  0.00     0.043 H 
ATOM     36  HB3 PHE C   3       6.649  16.125  11.034  1.00  0.00     0.043 H 
ATOM     37  CG  PHE C   3       7.298  18.021  10.766  1.00  0.00    -0.059 A 
ATOM     38  CD1 PHE C   3       6.660  18.461   9.602  1.00  0.00    -0.088 A 
ATOM     39  HD1 PHE C   3       5.790  17.813   9.117  1.00  0.00     0.078 H 
ATOM     40  CE1 PHE C   3       7.416  19.126   8.621  1.00  0.00    -0.011 A 
ATOM     41  HE1 PHE C   3       7.451  18.507   7.604  1.00  0.00     0.053 H 
ATOM     42  CZ  PHE C   3       8.747  19.488   8.873  1.00  0.00    -0.095 A 
ATOM     43  HZ  PHE C   3       9.453  20.054   8.104  1.00  0.00     0.077 H 
ATOM     44  CE2 PHE C   3       9.380  19.064  10.044  1.00  0.00    -0.085 A 
ATOM     45  HE2 PHE C   3      10.557  19.195  10.141  1.00  0.00     0.083 H 
ATOM     46  CD2 PHE C   3       8.629  18.393  11.024  1.00  0.00    -0.077 A 
ATOM     47  HD2 PHE C   3       9.260  18.343  12.030  1.00  0.00     0.084 H 
ATOM     48  N   ASP C   4       4.859  19.555  13.098  1.00  0.00    -0.247 NA
ATOM     49  H   ASP C   4       4.364  19.147  14.102  1.00  0.00     0.131 HD
ATOM     50  CA  ASP C   4       4.273  20.869  12.866  1.00  0.00     0.085 C 
ATOM     51  HA  ASP C   4       3.097  20.815  12.669  1.00  0.00     0.080 H 
ATOM     52  C   ASP C   4       5.034  21.614  11.776  1.00  0.00     0.236 C 
ATOM     53  O   ASP C   4       6.175  22.039  11.986  1.00  0.00    -0.272 OA
ATOM     54  CB  ASP C   4       4.317  21.711  14.143  1.00  0.00     0.039 C 
ATOM     55  HB2 ASP C   4       3.295  21.687  14.766  1.00  0.00     0.052 H 
ATOM     56  HB3 ASP C   4       4.510  22.881  13.991  1.00  0.00     0.052 H 
ATOM     57  CG  ASP C   4       5.305  21.289  15.236  1.00  0.00     0.174 C 
ATOM     58  OD1 ASP C   4       6.077  20.328  15.010  1.00  0.00    -0.648 OA
ATOM     59  OD2 ASP C   4       5.329  22.022  16.239  1.00  0.00    -0.648 OA
ATOM     60  N   GLU C   5       4.410  21.777  10.611  1.00  0.00    -0.346 N 
ATOM     61  H   GLU C   5       3.259  21.526  10.447  1.00  0.00     0.163 HD
ATOM     62  CA  GLU C   5       5.032  22.490   9.502  1.00  0.00     0.090 C 
ATOM     63  HA  GLU C   5       6.148  22.721   9.848  1.00  0.00     0.087 H 
ATOM     64  C   GLU C   5       4.197  23.701   9.104  1.00  0.00     0.241 C 
ATOM     65  O   GLU C   5       2.964  23.659   9.161  1.00  0.00    -0.271 OA
ATOM     66  CB  GLU C   5       5.164  21.576   8.282  1.00  0.00    -0.029 C 
ATOM     67  HB2 GLU C   5       5.497  20.488   8.625  1.00  0.00     0.037 H 
ATOM     68  HB3 GLU C   5       4.089  21.340   7.810  1.00  0.00     0.037 H 
ATOM     69  CG  GLU C   5       5.966  22.106   7.084  1.00  0.00     0.018 C 
ATOM     70  HG2 GLU C   5       7.097  22.400   7.320  1.00  0.00     0.049 H 
ATOM     71  HG3 GLU C   5       5.372  22.930   6.464  1.00  0.00     0.049 H 
ATOM     72  CD  GLU C   5       6.134  21.092   5.948  1.00  0.00     0.172 C 
ATOM     73  OE1 GLU C   5       5.411  21.227   4.935  1.00  0.00    -0.648 OA
ATOM     74  OE2 GLU C   5       7.155  20.368   5.981  1.00  0.00    -0.648 OA
ATOM     75  N   VAL C   6       4.862  24.782   8.700  1.00  0.00    -0.346 N 
ATOM     76  H   VAL C   6       6.011  24.732   8.988  1.00  0.00     0.163 HD
ATOM     77  CA  VAL C   6       4.168  25.994   8.276  1.00  0.00     0.092 C 
ATOM     78  HA  VAL C   6       3.265  26.170   9.038  1.00  0.00     0.088 H 
ATOM     79  C   VAL C   6       3.861  25.946   6.785  1.00  0.00     0.241 C 
ATOM     80  O   VAL C   6       4.701  25.522   5.985  1.00  0.00    -0.271 OA
ATOM     81  CB  VAL C   6       5.029  27.229   8.549  1.00  0.00    -0.033 C 
ATOM     82  HB  VAL C   6       5.654  26.878   7.615  1.00  0.00     0.042 H 
ATOM     83  CG1 VAL C   6       4.804  28.498   7.721  1.00  0.00    -0.071 C 
ATOM     84 1HG1 VAL C   6       5.584  29.380   7.492  1.00  0.00     0.028 H 
ATOM     85 2HG1 VAL C   6       4.221  29.090   8.595  1.00  0.00     0.028 H 
ATOM     86 3HG1 VAL C   6       3.990  28.688   6.865  1.00  0.00     0.028 H 
ATOM     87  CG2 VAL C   6       5.879  27.360   9.822  1.00  0.00    -0.071 C 
ATOM     88 1HG2 VAL C   6       5.063  27.750  10.615  1.00  0.00     0.028 H 
ATOM     89 2HG2 VAL C   6       6.670  28.262   9.873  1.00  0.00     0.028 H 
ATOM     90 3HG2 VAL C   6       6.419  26.553  10.525  1.00  0.00     0.028 H 
ATOM     91  N   PHE C   7       2.659  26.379   6.409  1.00  0.00    -0.346 N 
ATOM     92  H   PHE C   7       1.781  26.213   7.196  1.00  0.00     0.163 HD
ATOM     93  CA  PHE C   7       2.256  26.400   5.008  1.00  0.00     0.093 C 
ATOM     94  HA  PHE C   7       2.167  25.248   4.706  1.00  0.00     0.088 H 
ATOM     95  C   PHE C   7       3.220  27.243   4.183  1.00  0.00     0.241 C 
ATOM     96  O   PHE C   7       3.353  28.449   4.413  1.00  0.00    -0.271 OA
ATOM     97  CB  PHE C   7       0.853  26.992   4.861  1.00  0.00    -0.014 C 
ATOM     98  HB2 PHE C   7       0.437  27.516   5.854  1.00  0.00     0.043 H 
ATOM     99  HB3 PHE C   7       0.138  26.039   4.754  1.00  0.00     0.043 H 
ATOM    100  CG  PHE C   7       0.158  28.015   3.984  1.00  0.00    -0.056 A 
ATOM    101  CD1 PHE C   7       0.499  29.373   4.049  1.00  0.00    -0.077 A 
ATOM    102  HD1 PHE C   7       1.214  29.985   4.774  1.00  0.00     0.084 H 
ATOM    103  CE1 PHE C   7      -0.333  30.326   3.432  1.00  0.00    -0.082 A 
ATOM    104  HE1 PHE C   7      -0.202  31.503   3.522  1.00  0.00     0.083 H 
ATOM    105  CZ  PHE C   7      -1.390  29.899   2.615  1.00  0.00    -0.083 A 
ATOM    106  HZ  PHE C   7      -2.033  30.676   1.988  1.00  0.00     0.083 H 
ATOM    107  CE2 PHE C   7      -1.719  28.543   2.530  1.00  0.00    -0.082 A 
ATOM    108  HE2 PHE C   7      -2.776  28.242   2.080  1.00  0.00     0.083 H 
ATOM    109  CD2 PHE C   7      -0.886  27.588   3.140  1.00  0.00    -0.077 A 
ATOM    110  HD2 PHE C   7      -1.078  26.522   2.654  1.00  0.00     0.084 H 
ATOM    111  N   TYR C   8       3.894  26.616   3.220  1.00  0.00    -0.349 N 
ATOM    112  H   TYR C   8       3.694  25.473   2.961  1.00  0.00     0.163 HD
ATOM    113  CA  TYR C   8       4.846  27.337   2.339  1.00  0.00     0.082 C 
ATOM    114  HA  TYR C   8       4.574  28.490   2.203  1.00  0.00     0.081 H 
ATOM    115  C   TYR C   8       4.637  26.907   0.873  1.00  0.00     0.374 A 
ATOM    116  O   TYR C   8       4.482  25.716   0.584  1.00  0.00    -0.147 OA
ATOM    117  CB  TYR C   8       6.290  27.027   2.739  1.00  0.00    -0.018 C 
ATOM    118  HB2 TYR C   8       6.970  27.883   2.249  1.00  0.00     0.043 H 
ATOM    119  HB3 TYR C   8       6.759  26.056   2.225  1.00  0.00     0.043 H 
ATOM    120  CG  TYR C   8       6.765  26.973   4.160  1.00  0.00    -0.059 A 
ATOM    121  CD1 TYR C   8       6.824  28.121   4.967  1.00  0.00    -0.086 A 
ATOM    122  HD1 TYR C   8       6.957  29.219   4.530  1.00  0.00     0.079 H 
ATOM    123  CE1 TYR C   8       7.109  27.970   6.333  1.00  0.00     0.021 A 
ATOM    124  HE1 TYR C   8       7.937  28.757   6.671  1.00  0.00     0.058 H 
ATOM    125  CZ  TYR C   8       7.329  26.676   6.858  1.00  0.00     0.052 A 
ATOM    126  OH  TYR C   8       7.488  26.486   8.199  1.00  0.00    -0.364 OA
ATOM    127  HH  TYR C   8       8.644  26.451   8.472  1.00  0.00     0.217 HD
ATOM    128  CE2 TYR C   8       7.386  25.551   6.016  1.00  0.00    -0.054 A 
ATOM    129  HE2 TYR C   8       8.333  24.863   6.232  1.00  0.00     0.087 H 
ATOM    130  CD2 TYR C   8       7.137  25.711   4.648  1.00  0.00    -0.075 A 
ATOM    131  HD2 TYR C   8       7.612  24.815   4.026  1.00  0.00     0.084 H 
ATOM    132  N   LYS C   9       4.546  26.132   0.205  1.00  0.00     0.103 N 
ATOM    133  H   LYS C   9       3.471  26.402  -0.319  1.00  0.00     0.323 HD
ATOM    134  CA  LYS C   9       5.446  26.214  -0.946  1.00  0.00     0.218 C 
ATOM    135  HA  LYS C   9       6.611  26.068  -0.738  1.00  0.00     0.106 H 
ATOM    136  C   LYS C   9       5.417  27.680  -1.532  1.00  0.00     0.208 C 
ATOM    137  O   LYS C   9       4.546  28.498  -1.140  1.00  0.00    -0.646 OA
ATOM    138  CB  LYS C   9       5.010  25.222  -2.159  1.00  0.00    -0.025 C 
ATOM    139  HB2 LYS C   9       5.117  25.932  -3.116  1.00  0.00     0.036 H 
ATOM    140  HB3 LYS C   9       3.849  24.967  -2.040  1.00  0.00     0.036 H 
ATOM    141  CG  LYS C   9       5.788  23.924  -2.416  1.00  0.00    -0.061 C 
ATOM    142  HG2 LYS C   9       6.943  24.129  -2.642  1.00  0.00     0.033 H 
ATOM    143  HG3 LYS C   9       5.783  23.217  -1.451  1.00  0.00     0.033 H 
ATOM    144  CD  LYS C   9       4.977  23.404  -3.602  1.00  0.00    -0.043 C 
ATOM    145  HD2 LYS C   9       4.606  24.075  -4.521  1.00  0.00     0.035 H 
ATOM    146  HD3 LYS C   9       3.946  22.972  -3.169  1.00  0.00     0.035 H 
ATOM    147  CE  LYS C   9       5.566  22.122  -4.146  1.00  0.00     0.080 C 
ATOM    148  HE2 LYS C   9       6.190  21.432  -3.392  1.00  0.00     0.075 H 
ATOM    149  HE3 LYS C   9       4.729  21.343  -4.504  1.00  0.00     0.075 H 
ATOM    150  NZ  LYS C   9       6.375  22.516  -5.308  1.00  0.00    -0.079 N 
ATOM    151  HZ1 LYS C   9       7.359  21.831  -5.356  1.00  0.00     0.274 HD
ATOM    152  HZ2 LYS C   9       6.847  23.593  -5.537  1.00  0.00     0.274 HD
ATOM    153  HZ3 LYS C   9       5.811  22.260  -6.335  1.00  0.00     0.274 HD
ATOM    154  OXT LYS C   9       6.270  28.002  -2.372  1.00  0.00    -0.646 OA
ENDROOT
TORSDOF 43
