REMARK  0 active torsions:
REMARK  status: ('A' for Active; 'I' for Inactive)
REMARK       I    between atoms: N_1  and  CA_5 
REMARK       I    between atoms: CA_5  and  C_7 
REMARK       I    between atoms: CA_5  and  CB_9 
REMARK       I    between atoms: C_7  and  N_14 
REMARK       I    between atoms: CB_9  and  OG_12 
REMARK       I    between atoms: N_14  and  CA_16 
REMARK       I    between atoms: CA_16  and  CB_20 
REMARK       I    between atoms: CA_16  and  C_18 
REMARK       I    between atoms: C_18  and  N_28 
REMARK       I    between atoms: CB_20  and  OG1_26 
REMARK       I    between atoms: CB_20  and  CG2_22 
REMARK       I    between atoms: N_28  and  CA_30 
REMARK       I    between atoms: CA_30  and  CB_34 
REMARK       I    between atoms: CA_30  and  C_32 
REMARK       I    between atoms: C_32  and  N_48 
REMARK       I    between atoms: CB_34  and  CG_37 
REMARK       I    between atoms: N_48  and  CA_50 
REMARK       I    between atoms: CA_50  and  CB_54 
REMARK       I    between atoms: CA_50  and  C_52 
REMARK       I    between atoms: C_52  and  N_60 
REMARK       I    between atoms: CB_54  and  CG_57 
REMARK       I    between atoms: N_60  and  CA_62 
REMARK       I    between atoms: CA_62  and  C_64 
REMARK       I    between atoms: CA_62  and  CB_66 
REMARK       I    between atoms: C_64  and  N_75 
REMARK       I    between atoms: CB_66  and  CG_69 
REMARK       I    between atoms: CG_69  and  CD_72 
REMARK       I    between atoms: N_75  and  CA_77 
REMARK       I    between atoms: CA_77  and  C_79 
REMARK       I    between atoms: CA_77  and  CB_81 
REMARK       I    between atoms: C_79  and  N_91 
REMARK       I    between atoms: CB_81  and  CG1_83 
REMARK       I    between atoms: CB_81  and  CG2_87 
REMARK       I    between atoms: N_91  and  CA_93 
REMARK       I    between atoms: CA_93  and  CB_97 
REMARK       I    between atoms: CA_93  and  C_95 
REMARK       I    between atoms: C_95  and  N_111 
REMARK       I    between atoms: CB_97  and  CG_100 
REMARK       I    between atoms: N_111  and  CA_113 
REMARK       I    between atoms: CA_113  and  C_115 
REMARK       I    between atoms: CA_113  and  CB_117 
REMARK       I    between atoms: CB_117  and  CG_120 
REMARK       I    between atoms: CZ_125  and  OH_126 
REMARK       I    between atoms: N_132  and  CA_134 
REMARK       I    between atoms: CA_134  and  CB_138 
REMARK       I    between atoms: CA_134  and  C_136 
REMARK       I    between atoms: CB_138  and  CG_141 
REMARK       I    between atoms: CG_141  and  CD_144 
REMARK       I    between atoms: CD_144  and  CE_147 
REMARK       I    between atoms: CE_147  and  NZ_150 
ROOT
ATOM      1  N   SER C   1       3.569  10.245  15.174  1.00  0.00    -0.064 N 
ATOM      2  H   SER C   1       4.736  10.050  14.988  1.00  0.00     0.275 HD
ATOM      3  H2  SER C   1       3.029   9.874  14.168  1.00  0.00     0.275 HD
ATOM      4  H3  SER C   1       3.274   9.390  15.961  1.00  0.00     0.275 HD
ATOM      5  CA  SER C   1       3.063  11.615  15.582  1.00  0.00     0.195 C 
ATOM      6  HA  SER C   1       1.898  11.478  15.798  1.00  0.00     0.102 H 
ATOM      7  C   SER C   1       3.501  12.536  14.439  1.00  0.00     0.251 C 
ATOM      8  O   SER C   1       4.647  12.524  13.986  1.00  0.00    -0.271 OA
ATOM      9  CB  SER C   1       3.799  12.126  16.857  1.00  0.00     0.051 C 
ATOM     10  HB2 SER C   1       3.226  13.078  17.302  1.00  0.00     0.077 H 
ATOM     11  HB3 SER C   1       4.949  12.415  16.707  1.00  0.00     0.077 H 
ATOM     12  OG  SER C   1       3.752  11.235  17.956  1.00  0.00    -0.398 OA
ATOM     13  HG  SER C   1       4.447  11.625  18.834  1.00  0.00     0.209 HD
ATOM     14  N   THR C   2       2.645  13.462  14.123  1.00  0.00    -0.344 N 
ATOM     15  H   THR C   2       1.829  13.835  14.904  1.00  0.00     0.163 HD
ATOM     16  CA  THR C   2       2.846  14.378  12.987  1.00  0.00     0.113 C 
ATOM     17  HA  THR C   2       3.258  13.605  12.176  1.00  0.00     0.091 H 
ATOM     18  C   THR C   2       3.766  15.521  13.358  1.00  0.00     0.243 C 
ATOM     19  O   THR C   2       3.873  15.884  14.534  1.00  0.00    -0.271 OA
ATOM     20  CB  THR C   2       1.511  14.974  12.535  1.00  0.00     0.060 C 
ATOM     21  HB  THR C   2       1.587  14.679  11.374  1.00  0.00     0.086 H 
ATOM     22  CG2 THR C   2       1.330  16.471  12.270  1.00  0.00    -0.050 C 
ATOM     23 1HG2 THR C   2       1.509  17.138  13.250  1.00  0.00     0.031 H 
ATOM     24 2HG2 THR C   2       1.750  16.967  11.270  1.00  0.00     0.031 H 
ATOM     25 3HG2 THR C   2       0.150  16.657  12.146  1.00  0.00     0.031 H 
ATOM     26  OG1 THR C   2       0.348  14.158  12.521  1.00  0.00    -0.393 OA
ATOM     27  HG1 THR C   2      -0.374  14.436  13.418  1.00  0.00     0.210 HD
ATOM     28  N   PHE C   3       4.439  16.099  12.364  1.00  0.00    -0.346 N 
ATOM     29  H   PHE C   3       4.760  15.343  11.503  1.00  0.00     0.163 HD
ATOM     30  CA  PHE C   3       5.339  17.221  12.598  1.00  0.00     0.088 C 
ATOM     31  HA  PHE C   3       5.138  17.673  13.682  1.00  0.00     0.087 H 
ATOM     32  C   PHE C   3       5.008  18.381  11.668  1.00  0.00     0.221 C 
ATOM     33  O   PHE C   3       5.212  19.547  12.022  1.00  0.00    -0.278 OA
ATOM     34  CB  PHE C   3       6.791  16.806  12.351  1.00  0.00    -0.014 C 
ATOM     35  HB2 PHE C   3       7.100  16.516  11.232  1.00  0.00     0.043 H 
ATOM     36  HB3 PHE C   3       7.030  15.861  13.043  1.00  0.00     0.043 H 
ATOM     37  CG  PHE C   3       7.955  17.692  12.768  1.00  0.00    -0.056 A 
ATOM     38  CD1 PHE C   3       7.788  18.815  13.600  1.00  0.00    -0.077 A 
ATOM     39  HD1 PHE C   3       7.008  19.028  14.472  1.00  0.00     0.084 H 
ATOM     40  CE1 PHE C   3       8.875  19.635  13.926  1.00  0.00    -0.082 A 
ATOM     41  HE1 PHE C   3       8.822  20.590  14.631  1.00  0.00     0.083 H 
ATOM     42  CZ  PHE C   3      10.160  19.324  13.450  1.00  0.00    -0.083 A 
ATOM     43  HZ  PHE C   3      11.080  20.047  13.654  1.00  0.00     0.083 H 
ATOM     44  CE2 PHE C   3      10.343  18.184  12.650  1.00  0.00    -0.082 A 
ATOM     45  HE2 PHE C   3      11.449  17.938  12.292  1.00  0.00     0.083 H 
ATOM     46  CD2 PHE C   3       9.249  17.382  12.309  1.00  0.00    -0.077 A 
ATOM     47  HD2 PHE C   3       9.616  16.416  11.721  1.00  0.00     0.084 H 
ATOM     48  N   ASP C   4       4.497  18.070  10.478  1.00  0.00    -0.247 NA
ATOM     49  H   ASP C   4       5.319  17.420   9.911  1.00  0.00     0.131 HD
ATOM     50  CA  ASP C   4       4.124  19.098   9.513  1.00  0.00     0.085 C 
ATOM     51  HA  ASP C   4       5.052  19.798   9.239  1.00  0.00     0.080 H 
ATOM     52  C   ASP C   4       2.871  19.835   9.968  1.00  0.00     0.236 C 
ATOM     53  O   ASP C   4       1.754  19.332   9.809  1.00  0.00    -0.272 OA
ATOM     54  CB  ASP C   4       3.843  18.473   8.144  1.00  0.00     0.039 C 
ATOM     55  HB2 ASP C   4       2.944  18.962   7.526  1.00  0.00     0.052 H 
ATOM     56  HB3 ASP C   4       4.764  18.540   7.380  1.00  0.00     0.052 H 
ATOM     57  CG  ASP C   4       3.540  16.981   8.100  1.00  0.00     0.174 C 
ATOM     58  OD1 ASP C   4       3.408  16.343   9.165  1.00  0.00    -0.648 OA
ATOM     59  OD2 ASP C   4       3.341  16.509   6.943  1.00  0.00    -0.648 OA
ATOM     60  N   GLU C   5       3.048  21.028  10.534  1.00  0.00    -0.346 N 
ATOM     61  H   GLU C   5       4.153  21.459  10.613  1.00  0.00     0.163 HD
ATOM     62  CA  GLU C   5       1.922  21.833  10.990  1.00  0.00     0.090 C 
ATOM     63  HA  GLU C   5       0.924  21.193  11.138  1.00  0.00     0.087 H 
ATOM     64  C   GLU C   5       1.486  22.813   9.908  1.00  0.00     0.241 C 
ATOM     65  O   GLU C   5       0.296  22.912   9.594  1.00  0.00    -0.271 OA
ATOM     66  CB  GLU C   5       2.304  22.635  12.237  1.00  0.00    -0.029 C 
ATOM     67  HB2 GLU C   5       1.725  21.998  13.076  1.00  0.00     0.037 H 
ATOM     68  HB3 GLU C   5       3.447  22.508  12.568  1.00  0.00     0.037 H 
ATOM     69  CG  GLU C   5       1.993  24.047  12.752  1.00  0.00     0.018 C 
ATOM     70  HG2 GLU C   5       2.898  24.822  12.700  1.00  0.00     0.049 H 
ATOM     71  HG3 GLU C   5       0.887  24.400  12.480  1.00  0.00     0.049 H 
ATOM     72  CD  GLU C   5       1.904  24.068  14.299  1.00  0.00     0.172 C 
ATOM     73  OE1 GLU C   5       0.804  24.457  14.758  1.00  0.00    -0.648 OA
ATOM     74  OE2 GLU C   5       2.921  23.875  15.015  1.00  0.00    -0.648 OA
ATOM     75  N   VAL C   6       2.443  23.540   9.334  1.00  0.00    -0.346 N 
ATOM     76  H   VAL C   6       3.606  23.461   9.562  1.00  0.00     0.163 HD
ATOM     77  CA  VAL C   6       2.147  24.496   8.272  1.00  0.00     0.092 C 
ATOM     78  HA  VAL C   6       1.004  24.425   7.940  1.00  0.00     0.088 H 
ATOM     79  C   VAL C   6       3.108  24.319   7.104  1.00  0.00     0.241 C 
ATOM     80  O   VAL C   6       4.314  24.141   7.305  1.00  0.00    -0.271 OA
ATOM     81  CB  VAL C   6       2.279  25.930   8.789  1.00  0.00    -0.033 C 
ATOM     82  HB  VAL C   6       3.412  25.797   9.160  1.00  0.00     0.042 H 
ATOM     83  CG1 VAL C   6       2.698  27.041   7.825  1.00  0.00    -0.071 C 
ATOM     84 1HG1 VAL C   6       2.159  28.073   8.128  1.00  0.00     0.028 H 
ATOM     85 2HG1 VAL C   6       3.837  27.397   7.759  1.00  0.00     0.028 H 
ATOM     86 3HG1 VAL C   6       2.221  26.974   6.730  1.00  0.00     0.028 H 
ATOM     87  CG2 VAL C   6       1.916  26.348  10.218  1.00  0.00    -0.071 C 
ATOM     88 1HG2 VAL C   6       1.496  27.476  10.262  1.00  0.00     0.028 H 
ATOM     89 2HG2 VAL C   6       0.863  25.832  10.460  1.00  0.00     0.028 H 
ATOM     90 3HG2 VAL C   6       2.740  26.493  11.075  1.00  0.00     0.028 H 
ATOM     91  N   PHE C   7       2.579  24.367   5.883  1.00  0.00    -0.346 N 
ATOM     92  H   PHE C   7       1.413  24.475   5.673  1.00  0.00     0.163 HD
ATOM     93  CA  PHE C   7       3.399  24.231   4.686  1.00  0.00     0.093 C 
ATOM     94  HA  PHE C   7       4.488  23.858   4.996  1.00  0.00     0.088 H 
ATOM     95  C   PHE C   7       3.467  25.549   3.925  1.00  0.00     0.241 C 
ATOM     96  O   PHE C   7       2.484  26.295   3.873  1.00  0.00    -0.271 OA
ATOM     97  CB  PHE C   7       2.816  23.168   3.753  1.00  0.00    -0.014 C 
ATOM     98  HB2 PHE C   7       1.797  22.667   4.134  1.00  0.00     0.043 H 
ATOM     99  HB3 PHE C   7       3.564  22.240   3.861  1.00  0.00     0.043 H 
ATOM    100  CG  PHE C   7       2.418  23.206   2.291  1.00  0.00    -0.056 A 
ATOM    101  CD1 PHE C   7       1.420  24.079   1.813  1.00  0.00    -0.077 A 
ATOM    102  HD1 PHE C   7       0.617  24.699   2.431  1.00  0.00     0.084 H 
ATOM    103  CE1 PHE C   7       0.945  23.953   0.508  1.00  0.00    -0.082 A 
ATOM    104  HE1 PHE C   7       0.016  24.566   0.089  1.00  0.00     0.083 H 
ATOM    105  CZ  PHE C   7       1.531  23.021  -0.370  1.00  0.00    -0.083 A 
ATOM    106  HZ  PHE C   7       1.017  22.842  -1.427  1.00  0.00     0.083 H 
ATOM    107  CE2 PHE C   7       2.541  22.157   0.100  1.00  0.00    -0.082 A 
ATOM    108  HE2 PHE C   7       2.665  21.120  -0.468  1.00  0.00     0.083 H 
ATOM    109  CD2 PHE C   7       3.022  22.301   1.399  1.00  0.00    -0.077 A 
ATOM    110  HD2 PHE C   7       4.001  21.640   1.534  1.00  0.00     0.084 H 
ATOM    111  N   TYR C   8       4.624  25.843   3.334  1.00  0.00    -0.349 N 
ATOM    112  H   TYR C   8       5.576  25.130   3.325  1.00  0.00     0.163 HD
ATOM    113  CA  TYR C   8       4.803  27.089   2.548  1.00  0.00     0.082 C 
ATOM    114  HA  TYR C   8       3.897  27.864   2.518  1.00  0.00     0.081 H 
ATOM    115  C   TYR C   8       4.952  26.753   1.051  1.00  0.00     0.374 A 
ATOM    116  O   TYR C   8       5.670  25.816   0.686  1.00  0.00    -0.147 OA
ATOM    117  CB  TYR C   8       6.056  27.839   3.007  1.00  0.00    -0.017 C 
ATOM    118  HB2 TYR C   8       7.039  27.499   2.416  1.00  0.00     0.043 H 
ATOM    119  HB3 TYR C   8       5.978  28.983   2.661  1.00  0.00     0.043 H 
ATOM    120  CG  TYR C   8       6.421  27.980   4.459  1.00  0.00    -0.056 A 
ATOM    121  CD1 TYR C   8       5.658  28.768   5.343  1.00  0.00    -0.074 A 
ATOM    122  HD1 TYR C   8       5.021  29.719   5.023  1.00  0.00     0.084 H 
ATOM    123  CE1 TYR C   8       5.932  28.709   6.716  1.00  0.00    -0.051 A 
ATOM    124  HE1 TYR C   8       5.622  29.643   7.385  1.00  0.00     0.087 H 
ATOM    125  CZ  TYR C   8       6.969  27.876   7.186  1.00  0.00     0.065 A 
ATOM    126  OH  TYR C   8       7.173  27.714   8.519  1.00  0.00    -0.361 OA
ATOM    127  HH  TYR C   8       7.854  28.587   8.938  1.00  0.00     0.217 HD
ATOM    128  CE2 TYR C   8       7.808  27.188   6.281  1.00  0.00    -0.051 A 
ATOM    129  HE2 TYR C   8       8.775  26.637   6.697  1.00  0.00     0.087 H 
ATOM    130  CD2 TYR C   8       7.543  27.274   4.911  1.00  0.00    -0.074 A 
ATOM    131  HD2 TYR C   8       8.477  26.869   4.297  1.00  0.00     0.084 H 
ATOM    132  N   LYS C   9       4.546  26.132   0.205  1.00  0.00     0.103 N 
ATOM    133  H   LYS C   9       3.361  26.119   0.074  1.00  0.00     0.323 HD
ATOM    134  CA  LYS C   9       5.446  26.214  -0.946  1.00  0.00     0.218 C 
ATOM    135  HA  LYS C   9       6.640  26.132  -0.977  1.00  0.00     0.106 H 
ATOM    136  C   LYS C   9       5.417  27.680  -1.532  1.00  0.00     0.208 C 
ATOM    137  O   LYS C   9       4.546  28.498  -1.140  1.00  0.00    -0.646 OA
ATOM    138  CB  LYS C   9       5.010  25.222  -2.159  1.00  0.00    -0.025 C 
ATOM    139  HB2 LYS C   9       5.173  25.909  -3.126  1.00  0.00     0.036 H 
ATOM    140  HB3 LYS C   9       3.821  25.133  -2.081  1.00  0.00     0.036 H 
ATOM    141  CG  LYS C   9       5.786  23.929  -2.424  1.00  0.00    -0.061 C 
ATOM    142  HG2 LYS C   9       6.937  24.144  -2.662  1.00  0.00     0.033 H 
ATOM    143  HG3 LYS C   9       5.819  23.197  -1.479  1.00  0.00     0.033 H 
ATOM    144  CD  LYS C   9       4.975  23.420  -3.602  1.00  0.00    -0.043 C 
ATOM    145  HD2 LYS C   9       3.889  23.037  -3.273  1.00  0.00     0.035 H 
ATOM    146  HD3 LYS C   9       4.702  24.165  -4.498  1.00  0.00     0.035 H 
ATOM    147  CE  LYS C   9       5.572  22.128  -4.147  1.00  0.00     0.080 C 
ATOM    148  HE2 LYS C   9       6.250  21.434  -3.441  1.00  0.00     0.075 H 
ATOM    149  HE3 LYS C   9       4.726  21.344  -4.499  1.00  0.00     0.075 H 
ATOM    150  NZ  LYS C   9       6.373  22.526  -5.305  1.00  0.00    -0.079 N 
ATOM    151  HZ1 LYS C   9       5.922  23.186  -6.200  1.00  0.00     0.274 HD
ATOM    152  HZ2 LYS C   9       7.470  22.976  -5.131  1.00  0.00     0.274 HD
ATOM    153  HZ3 LYS C   9       6.625  21.517  -5.910  1.00  0.00     0.274 HD
ATOM    154  OXT LYS C   9       6.308  27.953  -2.382  1.00  0.00    -0.646 OA
ENDROOT
TORSDOF 43
