REMARK  0 active torsions:
REMARK  status: ('A' for Active; 'I' for Inactive)
REMARK       I    between atoms: N_1  and  CA_5 
REMARK       I    between atoms: CA_5  and  C_7 
REMARK       I    between atoms: CA_5  and  CB_9 
REMARK       I    between atoms: CB_9  and  OG_12 
REMARK       I    between atoms: N_14  and  CA_16 
REMARK       I    between atoms: CA_16  and  CB_20 
REMARK       I    between atoms: CA_16  and  C_18 
REMARK       I    between atoms: C_18  and  N_28 
REMARK       I    between atoms: CB_20  and  OG1_26 
REMARK       I    between atoms: CB_20  and  CG2_22 
REMARK       I    between atoms: N_28  and  CA_30 
REMARK       I    between atoms: CA_30  and  CB_34 
REMARK       I    between atoms: CA_30  and  C_32 
REMARK       I    between atoms: C_32  and  N_48 
REMARK       I    between atoms: CB_34  and  CG_37 
REMARK       I    between atoms: N_48  and  CA_50 
REMARK       I    between atoms: CA_50  and  CB_54 
REMARK       I    between atoms: CA_50  and  C_52 
REMARK       I    between atoms: C_52  and  N_60 
REMARK       I    between atoms: CB_54  and  CG_57 
REMARK       I    between atoms: N_60  and  CA_62 
REMARK       I    between atoms: CA_62  and  CB_66 
REMARK       I    between atoms: CA_62  and  C_64 
REMARK       I    between atoms: C_64  and  N_75 
REMARK       I    between atoms: CB_66  and  CG_69 
REMARK       I    between atoms: CG_69  and  CD_72 
REMARK       I    between atoms: N_75  and  CA_77 
REMARK       I    between atoms: CA_77  and  C_79 
REMARK       I    between atoms: CA_77  and  CB_81 
REMARK       I    between atoms: C_79  and  N_91 
REMARK       I    between atoms: CB_81  and  CG1_83 
REMARK       I    between atoms: CB_81  and  CG2_87 
REMARK       I    between atoms: N_91  and  CA_93 
REMARK       I    between atoms: CA_93  and  CB_97 
REMARK       I    between atoms: CA_93  and  C_95 
REMARK       I    between atoms: C_95  and  N_111 
REMARK       I    between atoms: CB_97  and  CG_100 
REMARK       I    between atoms: N_111  and  CA_113 
REMARK       I    between atoms: CA_113  and  CB_117 
REMARK       I    between atoms: CA_113  and  C_115 
REMARK       I    between atoms: C_115  and  N_132 
REMARK       I    between atoms: CB_117  and  CG_120 
REMARK       I    between atoms: CZ_125  and  OH_126 
REMARK       I    between atoms: N_132  and  CA_134 
REMARK       I    between atoms: CA_134  and  CB_138 
REMARK       I    between atoms: CA_134  and  C_136 
REMARK       I    between atoms: CB_138  and  CG_141 
REMARK       I    between atoms: CG_141  and  CD_144 
REMARK       I    between atoms: CD_144  and  CE_147 
REMARK       I    between atoms: CE_147  and  NZ_150 
ROOT
ATOM      1  N   SER C   1       3.569  10.245  15.174  1.00  0.00    -0.068 N 
ATOM      2  H   SER C   1       4.484  10.090  14.416  1.00  0.00     0.275 HD
ATOM      3  H2  SER C   1       2.656   9.696  14.621  1.00  0.00     0.275 HD
ATOM      4  H3  SER C   1       3.850   9.490  16.062  1.00  0.00     0.275 HD
ATOM      5  CA  SER C   1       3.063  11.615  15.582  1.00  0.00     0.185 C 
ATOM      6  HA  SER C   1       1.885  11.559  15.756  1.00  0.00     0.095 H 
ATOM      7  C   SER C   1       3.501  12.536  14.439  1.00  0.00     0.383 A 
ATOM      8  O   SER C   1       4.647  12.524  13.986  1.00  0.00    -0.147 OA
ATOM      9  CB  SER C   1       3.799  12.126  16.857  1.00  0.00     0.048 C 
ATOM     10  HB2 SER C   1       4.967  12.274  16.662  1.00  0.00     0.077 H 
ATOM     11  HB3 SER C   1       3.442  13.105  17.443  1.00  0.00     0.077 H 
ATOM     12  OG  SER C   1       3.748  11.222  17.947  1.00  0.00    -0.399 OA
ATOM     13  HG  SER C   1       4.352  11.650  18.873  1.00  0.00     0.209 HD
ATOM     14  N   THR C   2       3.796  13.692  13.700  1.00  0.00     0.104 N 
ATOM     15  H   THR C   2       4.691  14.004  12.971  1.00  0.00     0.323 HD
ATOM     16  CA  THR C   2       2.705  14.674  13.582  1.00  0.00     0.235 C 
ATOM     17  HA  THR C   2       1.991  14.004  12.897  1.00  0.00     0.108 H 
ATOM     18  C   THR C   2       3.131  15.873  12.762  1.00  0.00     0.255 C 
ATOM     19  O   THR C   2       4.322  16.188  12.683  1.00  0.00    -0.271 OA
ATOM     20  CB  THR C   2       2.280  15.175  14.964  1.00  0.00     0.071 C 
ATOM     21  HB  THR C   2       1.122  14.952  14.736  1.00  0.00     0.086 H 
ATOM     22  CG2 THR C   2       2.027  16.660  15.243  1.00  0.00    -0.050 C 
ATOM     23 1HG2 THR C   2       1.425  17.390  14.511  1.00  0.00     0.031 H 
ATOM     24 2HG2 THR C   2       3.106  16.988  15.644  1.00  0.00     0.031 H 
ATOM     25 3HG2 THR C   2       1.312  16.918  16.175  1.00  0.00     0.031 H 
ATOM     26  OG1 THR C   2       2.165  14.300  16.075  1.00  0.00    -0.393 OA
ATOM     27  HG1 THR C   2       1.822  14.892  17.044  1.00  0.00     0.210 HD
ATOM     28  N   PHE C   3       2.165  16.552  12.144  1.00  0.00    -0.346 N 
ATOM     29  H   PHE C   3       1.053  16.128  12.154  1.00  0.00     0.163 HD
ATOM     30  CA  PHE C   3       2.454  17.735  11.342  1.00  0.00     0.093 C 
ATOM     31  HA  PHE C   3       3.553  17.775  10.879  1.00  0.00     0.088 H 
ATOM     32  C   PHE C   3       2.157  19.005  12.129  1.00  0.00     0.241 C 
ATOM     33  O   PHE C   3       1.077  19.589  11.993  1.00  0.00    -0.271 OA
ATOM     34  CB  PHE C   3       1.600  17.746  10.073  1.00  0.00    -0.014 C 
ATOM     35  HB2 PHE C   3       0.626  17.056  10.177  1.00  0.00     0.043 H 
ATOM     36  HB3 PHE C   3       2.257  17.070   9.332  1.00  0.00     0.043 H 
ATOM     37  CG  PHE C   3       0.885  18.661   9.110  1.00  0.00    -0.056 A 
ATOM     38  CD1 PHE C   3      -0.302  19.294   9.506  1.00  0.00    -0.077 A 
ATOM     39  HD1 PHE C   3      -0.994  19.074  10.449  1.00  0.00     0.084 H 
ATOM     40  CE1 PHE C   3      -1.119  19.897   8.534  1.00  0.00    -0.082 A 
ATOM     41  HE1 PHE C   3      -2.290  20.032   8.693  1.00  0.00     0.083 H 
ATOM     42  CZ  PHE C   3      -0.635  20.042   7.225  1.00  0.00    -0.083 A 
ATOM     43  HZ  PHE C   3      -1.404  20.353   6.372  1.00  0.00     0.083 H 
ATOM     44  CE2 PHE C   3       0.559  19.424   6.832  1.00  0.00    -0.082 A 
ATOM     45  HE2 PHE C   3       0.690  19.139   5.684  1.00  0.00     0.083 H 
ATOM     46  CD2 PHE C   3       1.383  18.828   7.796  1.00  0.00    -0.077 A 
ATOM     47  HD2 PHE C   3       2.403  18.456   7.311  1.00  0.00     0.084 H 
ATOM     48  N   ASP C   4       3.110  19.439  12.953  1.00  0.00    -0.345 N 
ATOM     49  H   ASP C   4       4.015  18.684  13.083  1.00  0.00     0.163 HD
ATOM     50  CA  ASP C   4       2.945  20.654  13.741  1.00  0.00     0.098 C 
ATOM     51  HA  ASP C   4       1.827  21.031  13.923  1.00  0.00     0.088 H 
ATOM     52  C   ASP C   4       3.624  21.835  13.060  1.00  0.00     0.241 C 
ATOM     53  O   ASP C   4       3.264  22.991  13.303  1.00  0.00    -0.271 OA
ATOM     54  CB  ASP C   4       3.564  20.481  15.130  1.00  0.00     0.043 C 
ATOM     55  HB2 ASP C   4       2.771  20.031  15.904  1.00  0.00     0.052 H 
ATOM     56  HB3 ASP C   4       3.850  21.523  15.647  1.00  0.00     0.052 H 
ATOM     57  CG  ASP C   4       4.844  19.691  15.355  1.00  0.00     0.175 C 
ATOM     58  OD1 ASP C   4       5.476  19.552  14.281  1.00  0.00    -0.648 OA
ATOM     59  OD2 ASP C   4       5.297  19.572  16.526  1.00  0.00    -0.648 OA
ATOM     60  N   GLU C   5       4.607  21.553  12.206  1.00  0.00    -0.346 N 
ATOM     61  H   GLU C   5       4.965  20.543  11.692  1.00  0.00     0.163 HD
ATOM     62  CA  GLU C   5       5.316  22.601  11.481  1.00  0.00     0.090 C 
ATOM     63  HA  GLU C   5       5.079  23.671  11.951  1.00  0.00     0.087 H 
ATOM     64  C   GLU C   5       4.965  22.563   9.999  1.00  0.00     0.241 C 
ATOM     65  O   GLU C   5       5.783  22.152   9.171  1.00  0.00    -0.271 OA
ATOM     66  CB  GLU C   5       6.829  22.421  11.621  1.00  0.00    -0.029 C 
ATOM     67  HB2 GLU C   5       7.093  21.957  12.692  1.00  0.00     0.037 H 
ATOM     68  HB3 GLU C   5       7.442  21.709  10.881  1.00  0.00     0.037 H 
ATOM     69  CG  GLU C   5       7.586  23.756  11.699  1.00  0.00     0.018 C 
ATOM     70  HG2 GLU C   5       7.172  24.643  12.386  1.00  0.00     0.049 H 
ATOM     71  HG3 GLU C   5       7.724  24.250  10.619  1.00  0.00     0.049 H 
ATOM     72  CD  GLU C   5       9.030  23.704  12.219  1.00  0.00     0.172 C 
ATOM     73  OE1 GLU C   5       9.933  23.650  11.367  1.00  0.00    -0.648 OA
ATOM     74  OE2 GLU C   5       9.201  24.100  13.384  1.00  0.00    -0.648 OA
ATOM     75  N   VAL C   6       3.750  22.990   9.658  1.00  0.00    -0.346 N 
ATOM     76  H   VAL C   6       3.384  23.895  10.340  1.00  0.00     0.163 HD
ATOM     77  CA  VAL C   6       3.310  23.018   8.268  1.00  0.00     0.092 C 
ATOM     78  HA  VAL C   6       3.429  21.901   7.868  1.00  0.00     0.088 H 
ATOM     79  C   VAL C   6       4.030  24.117   7.497  1.00  0.00     0.241 C 
ATOM     80  O   VAL C   6       4.026  25.280   7.911  1.00  0.00    -0.271 OA
ATOM     81  CB  VAL C   6       1.805  23.281   8.185  1.00  0.00    -0.033 C 
ATOM     82  HB  VAL C   6       1.792  24.339   8.747  1.00  0.00     0.042 H 
ATOM     83  CG1 VAL C   6       1.211  23.951   6.940  1.00  0.00    -0.071 C 
ATOM     84 1HG1 VAL C   6       1.216  25.139   6.790  1.00  0.00     0.028 H 
ATOM     85 2HG1 VAL C   6       1.616  23.443   5.933  1.00  0.00     0.028 H 
ATOM     86 3HG1 VAL C   6       0.038  23.750   6.774  1.00  0.00     0.028 H 
ATOM     87  CG2 VAL C   6       0.837  22.751   9.243  1.00  0.00    -0.071 C 
ATOM     88 1HG2 VAL C   6       0.631  23.361  10.258  1.00  0.00     0.028 H 
ATOM     89 2HG2 VAL C   6      -0.306  22.690   8.886  1.00  0.00     0.028 H 
ATOM     90 3HG2 VAL C   6       1.208  21.677   9.609  1.00  0.00     0.028 H 
ATOM     91  N   PHE C   7       4.648  23.752   6.375  1.00  0.00    -0.346 N 
ATOM     92  H   PHE C   7       4.589  22.647   5.941  1.00  0.00     0.163 HD
ATOM     93  CA  PHE C   7       5.354  24.716   5.541  1.00  0.00     0.093 C 
ATOM     94  HA  PHE C   7       5.531  25.713   6.169  1.00  0.00     0.088 H 
ATOM     95  C   PHE C   7       4.574  24.998   4.263  1.00  0.00     0.241 C 
ATOM     96  O   PHE C   7       3.936  24.099   3.707  1.00  0.00    -0.271 OA
ATOM     97  CB  PHE C   7       6.735  24.182   5.152  1.00  0.00    -0.014 C 
ATOM     98  HB2 PHE C   7       7.513  24.822   5.800  1.00  0.00     0.043 H 
ATOM     99  HB3 PHE C   7       6.996  23.081   5.544  1.00  0.00     0.043 H 
ATOM    100  CG  PHE C   7       7.408  23.997   3.802  1.00  0.00    -0.056 A 
ATOM    101  CD1 PHE C   7       6.876  23.156   2.816  1.00  0.00    -0.077 A 
ATOM    102  HD1 PHE C   7       6.064  22.301   2.966  1.00  0.00     0.084 H 
ATOM    103  CE1 PHE C   7       7.632  22.852   1.665  1.00  0.00    -0.082 A 
ATOM    104  HE1 PHE C   7       7.476  21.835   1.070  1.00  0.00     0.083 H 
ATOM    105  CZ  PHE C   7       8.863  23.484   1.452  1.00  0.00    -0.083 A 
ATOM    106  HZ  PHE C   7       9.554  23.234   0.519  1.00  0.00     0.083 H 
ATOM    107  CE2 PHE C   7       9.391  24.344   2.422  1.00  0.00    -0.082 A 
ATOM    108  HE2 PHE C   7      10.530  24.674   2.350  1.00  0.00     0.083 H 
ATOM    109  CD2 PHE C   7       8.630  24.653   3.562  1.00  0.00    -0.077 A 
ATOM    110  HD2 PHE C   7       9.141  25.559   4.137  1.00  0.00     0.084 H 
ATOM    111  N   TYR C   8       4.620  26.244   3.793  1.00  0.00    -0.346 N 
ATOM    112  H   TYR C   8       5.393  27.064   4.172  1.00  0.00     0.163 HD
ATOM    113  CA  TYR C   8       3.916  26.633   2.546  1.00  0.00     0.093 C 
ATOM    114  HA  TYR C   8       2.976  25.917   2.390  1.00  0.00     0.088 H 
ATOM    115  C   TYR C   8       4.909  26.665   1.367  1.00  0.00     0.241 C 
ATOM    116  O   TYR C   8       6.025  27.178   1.500  1.00  0.00    -0.271 OA
ATOM    117  CB  TYR C   8       3.288  28.020   2.694  1.00  0.00    -0.014 C 
ATOM    118  HB2 TYR C   8       2.456  28.240   1.862  1.00  0.00     0.043 H 
ATOM    119  HB3 TYR C   8       4.100  28.863   2.445  1.00  0.00     0.043 H 
ATOM    120  CG  TYR C   8       2.584  28.450   3.954  1.00  0.00    -0.056 A 
ATOM    121  CD1 TYR C   8       1.360  27.885   4.349  1.00  0.00    -0.074 A 
ATOM    122  HD1 TYR C   8       0.516  27.465   3.624  1.00  0.00     0.084 H 
ATOM    123  CE1 TYR C   8       0.842  28.187   5.625  1.00  0.00    -0.051 A 
ATOM    124  HE1 TYR C   8      -0.313  28.076   5.879  1.00  0.00     0.087 H 
ATOM    125  CZ  TYR C   8       1.554  29.056   6.467  1.00  0.00     0.065 A 
ATOM    126  OH  TYR C   8       1.127  29.267   7.755  1.00  0.00    -0.361 OA
ATOM    127  HH  TYR C   8       1.968  28.947   8.522  1.00  0.00     0.217 HD
ATOM    128  CE2 TYR C   8       2.706  29.720   6.023  1.00  0.00    -0.051 A 
ATOM    129  HE2 TYR C   8       3.116  30.668   6.613  1.00  0.00     0.087 H 
ATOM    130  CD2 TYR C   8       3.204  29.438   4.740  1.00  0.00    -0.074 A 
ATOM    131  HD2 TYR C   8       3.925  30.320   4.397  1.00  0.00     0.084 H 
ATOM    132  N   LYS C   9       4.546  26.132   0.205  1.00  0.00    -0.345 N 
ATOM    133  H   LYS C   9       3.497  25.586   0.093  1.00  0.00     0.163 HD
ATOM    134  CA  LYS C   9       5.446  26.214  -0.946  1.00  0.00     0.096 C 
ATOM    135  HA  LYS C   9       6.603  26.069  -0.703  1.00  0.00     0.089 H 
ATOM    136  C   LYS C   9       5.417  27.680  -1.532  1.00  0.00     0.196 C 
ATOM    137  O   LYS C   9       4.546  28.498  -1.140  1.00  0.00    -0.646 OA
ATOM    138  CB  LYS C   9       5.010  25.222  -2.159  1.00  0.00    -0.037 C 
ATOM    139  HB2 LYS C   9       5.257  25.923  -3.095  1.00  0.00     0.036 H 
ATOM    140  HB3 LYS C   9       3.818  25.161  -2.114  1.00  0.00     0.036 H 
ATOM    141  CG  LYS C   9       5.789  23.920  -2.417  1.00  0.00    -0.061 C 
ATOM    142  HG2 LYS C   9       5.725  23.197  -1.469  1.00  0.00     0.033 H 
ATOM    143  HG3 LYS C   9       6.950  24.123  -2.614  1.00  0.00     0.033 H 
ATOM    144  CD  LYS C   9       4.979  23.400  -3.607  1.00  0.00    -0.043 C 
ATOM    145  HD2 LYS C   9       4.600  24.126  -4.479  1.00  0.00     0.035 H 
ATOM    146  HD3 LYS C   9       3.950  22.975  -3.160  1.00  0.00     0.035 H 
ATOM    147  CE  LYS C   9       5.561  22.120  -4.151  1.00  0.00     0.080 C 
ATOM    148  HE2 LYS C   9       6.184  21.376  -3.452  1.00  0.00     0.075 H 
ATOM    149  HE3 LYS C   9       4.701  21.382  -4.542  1.00  0.00     0.075 H 
ATOM    150  NZ  LYS C   9       6.375  22.515  -5.309  1.00  0.00    -0.079 N 
ATOM    151  HZ1 LYS C   9       7.488  22.901  -5.090  1.00  0.00     0.274 HD
ATOM    152  HZ2 LYS C   9       5.972  23.280  -6.143  1.00  0.00     0.274 HD
ATOM    153  HZ3 LYS C   9       6.610  21.547  -5.983  1.00  0.00     0.274 HD
ATOM    154  OXT LYS C   9       6.239  28.072  -2.383  1.00  0.00    -0.646 OA
ENDROOT
TORSDOF 43
