REMARK  0 active torsions:
REMARK  status: ('A' for Active; 'I' for Inactive)
REMARK       I    between atoms: N_1  and  CA_5 
REMARK       I    between atoms: CA_5  and  CB_9 
REMARK       I    between atoms: CA_5  and  C_7 
REMARK       I    between atoms: C_7  and  O_8 
REMARK       I    between atoms: O_8  and  N_28 
REMARK       I    between atoms: CB_9  and  OG_12 
REMARK       I    between atoms: N_14  and  CA_16 
REMARK       I    between atoms: CA_16  and  CB_20 
REMARK       I    between atoms: CA_16  and  C_18 
REMARK       I    between atoms: C_18  and  N_28 
REMARK       I    between atoms: CB_20  and  CG2_22 
REMARK       I    between atoms: CB_20  and  OG1_26 
REMARK       I    between atoms: N_28  and  CA_30 
REMARK       I    between atoms: CA_30  and  C_32 
REMARK       I    between atoms: CA_30  and  CB_34 
REMARK       I    between atoms: C_32  and  N_48 
REMARK       I    between atoms: CB_34  and  CG_37 
REMARK       I    between atoms: N_48  and  CA_50 
REMARK       I    between atoms: CA_50  and  CB_54 
REMARK       I    between atoms: CA_50  and  C_52 
REMARK       I    between atoms: C_52  and  N_60 
REMARK       I    between atoms: CB_54  and  CG_57 
REMARK       I    between atoms: N_60  and  CA_62 
REMARK       I    between atoms: CA_62  and  CB_66 
REMARK       I    between atoms: CA_62  and  C_64 
REMARK       I    between atoms: C_64  and  N_75 
REMARK       I    between atoms: CB_66  and  CG_69 
REMARK       I    between atoms: CG_69  and  CD_72 
REMARK       I    between atoms: N_75  and  CA_77 
REMARK       I    between atoms: CA_77  and  CB_81 
REMARK       I    between atoms: CA_77  and  C_79 
REMARK       I    between atoms: C_79  and  N_91 
REMARK       I    between atoms: CB_81  and  CG1_83 
REMARK       I    between atoms: CB_81  and  CG2_87 
REMARK       I    between atoms: N_91  and  CA_93 
REMARK       I    between atoms: CA_93  and  C_95 
REMARK       I    between atoms: CA_93  and  CB_97 
REMARK       I    between atoms: C_95  and  N_111 
REMARK       I    between atoms: CB_97  and  CG_100 
REMARK       I    between atoms: N_111  and  CA_113 
REMARK       I    between atoms: CA_113  and  CB_117 
REMARK       I    between atoms: CA_113  and  C_115 
REMARK       I    between atoms: C_115  and  N_132 
REMARK       I    between atoms: CB_117  and  CG_120 
REMARK       I    between atoms: CZ_125  and  OH_126 
REMARK       I    between atoms: N_132  and  CA_134 
REMARK       I    between atoms: CA_134  and  CB_138 
REMARK       I    between atoms: CA_134  and  C_136 
REMARK       I    between atoms: CB_138  and  CG_141 
REMARK       I    between atoms: CG_141  and  CD_144 
REMARK       I    between atoms: CD_144  and  CE_147 
REMARK       I    between atoms: CE_147  and  NZ_150 
ROOT
ATOM      1  N   SER C   1       3.569  10.245  15.174  1.00  0.00    -0.070 N 
ATOM      2  H   SER C   1       2.942   9.830  14.239  1.00  0.00     0.274 HD
ATOM      3  H2  SER C   1       4.715   9.996  14.939  1.00  0.00     0.274 HD
ATOM      4  H3  SER C   1       3.310   9.439  16.024  1.00  0.00     0.274 HD
ATOM      5  CA  SER C   1       3.063  11.615  15.582  1.00  0.00     0.158 C 
ATOM      6  HA  SER C   1       1.888  11.585  15.778  1.00  0.00     0.092 H 
ATOM      7  C   SER C   1       3.501  12.536  14.439  1.00  0.00     0.203 C 
ATOM      8  O   SER C   1       4.647  12.524  13.986  1.00  0.00    -0.175 OA
ATOM      9  CB  SER C   1       3.799  12.126  16.857  1.00  0.00     0.046 C 
ATOM     10  HB2 SER C   1       3.275  13.144  17.206  1.00  0.00     0.077 H 
ATOM     11  HB3 SER C   1       4.964  12.378  16.773  1.00  0.00     0.077 H 
ATOM     12  OG  SER C   1       3.735  11.224  17.946  1.00  0.00    -0.399 OA
ATOM     13  HG  SER C   1       3.933  11.781  18.973  1.00  0.00     0.209 HD
ATOM     14  N   THR C   2       2.107  14.441  14.483  1.00  0.00    -0.481 NA
ATOM     15  H   THR C   2       1.557  15.041  15.342  1.00  0.00     0.259 HD
ATOM     16  CA  THR C   2       2.730  14.057  13.205  1.00  0.00     0.171 C 
ATOM     17  HA  THR C   2       2.095  13.045  13.156  1.00  0.00     0.113 H 
ATOM     18  C   THR C   2       4.199  14.421  13.178  1.00  0.00     0.385 C 
ATOM     19  O   THR C   2       4.631  15.340  13.881  1.00  0.00    -0.259 OA
ATOM     20  CB  THR C   2       2.046  14.772  12.037  1.00  0.00     0.071 C 
ATOM     21  HB  THR C   2       1.847  13.778  11.393  1.00  0.00     0.087 H 
ATOM     22  CG2 THR C   2       2.825  15.495  10.940  1.00  0.00    -0.049 C 
ATOM     23 1HG2 THR C   2       3.492  15.887  10.031  1.00  0.00     0.031 H 
ATOM     24 2HG2 THR C   2       1.922  15.430  10.143  1.00  0.00     0.031 H 
ATOM     25 3HG2 THR C   2       2.858  16.477  11.628  1.00  0.00     0.031 H 
ATOM     26  OG1 THR C   2       0.637  14.940  12.074  1.00  0.00    -0.392 OA
ATOM     27  HG1 THR C   2       0.339  15.979  12.559  1.00  0.00     0.210 HD
ATOM     28  N   PHE C   3       4.981  13.705  12.371  1.00  0.00     0.125 N 
ATOM     29  H   PHE C   3       4.694  12.718  11.772  1.00  0.00     0.330 HD
ATOM     30  CA  PHE C   3       6.408  13.977  12.248  1.00  0.00     0.215 C 
ATOM     31  HA  PHE C   3       6.806  14.907  12.881  1.00  0.00     0.105 H 
ATOM     32  C   PHE C   3       6.774  14.294  10.804  1.00  0.00     0.233 C 
ATOM     33  O   PHE C   3       7.952  14.262  10.434  1.00  0.00    -0.277 OA
ATOM     34  CB  PHE C   3       7.226  12.764  12.696  1.00  0.00    -0.003 C 
ATOM     35  HB2 PHE C   3       6.984  12.426  13.811  1.00  0.00     0.044 H 
ATOM     36  HB3 PHE C   3       7.125  11.890  11.884  1.00  0.00     0.044 H 
ATOM     37  CG  PHE C   3       8.718  12.687  12.990  1.00  0.00    -0.056 A 
ATOM     38  CD1 PHE C   3       9.586  13.787  12.926  1.00  0.00    -0.077 A 
ATOM     39  HD1 PHE C   3       9.397  14.928  13.193  1.00  0.00     0.084 H 
ATOM     40  CE1 PHE C   3      10.976  13.585  13.063  1.00  0.00    -0.082 A 
ATOM     41  HE1 PHE C   3      11.781  14.432  12.851  1.00  0.00     0.083 H 
ATOM     42  CZ  PHE C   3      11.478  12.310  13.371  1.00  0.00    -0.083 A 
ATOM     43  HZ  PHE C   3      12.644  12.156  13.537  1.00  0.00     0.083 H 
ATOM     44  CE2 PHE C   3      10.614  11.229  13.515  1.00  0.00    -0.082 A 
ATOM     45  HE2 PHE C   3      11.094  10.166  13.743  1.00  0.00     0.083 H 
ATOM     46  CD2 PHE C   3       9.228  11.425  13.330  1.00  0.00    -0.077 A 
ATOM     47  HD2 PHE C   3       8.715  10.398  13.640  1.00  0.00     0.084 H 
ATOM     48  N   ASP C   4       5.771  14.600   9.983  1.00  0.00    -0.247 NA
ATOM     49  H   ASP C   4       5.533  15.564  10.635  1.00  0.00     0.131 HD
ATOM     50  CA  ASP C   4       6.003  14.940   8.584  1.00  0.00     0.085 C 
ATOM     51  HA  ASP C   4       7.114  15.166   8.211  1.00  0.00     0.080 H 
ATOM     52  C   ASP C   4       5.247  16.207   8.204  1.00  0.00     0.236 C 
ATOM     53  O   ASP C   4       4.418  16.192   7.289  1.00  0.00    -0.272 OA
ATOM     54  CB  ASP C   4       5.531  13.807   7.670  1.00  0.00     0.039 C 
ATOM     55  HB2 ASP C   4       5.236  14.047   6.537  1.00  0.00     0.052 H 
ATOM     56  HB3 ASP C   4       6.429  13.022   7.559  1.00  0.00     0.052 H 
ATOM     57  CG  ASP C   4       4.441  12.843   8.142  1.00  0.00     0.174 C 
ATOM     58  OD1 ASP C   4       3.907  13.058   9.252  1.00  0.00    -0.648 OA
ATOM     59  OD2 ASP C   4       4.114  11.953   7.329  1.00  0.00    -0.648 OA
ATOM     60  N   GLU C   5       5.526  17.306   8.903  1.00  0.00    -0.346 N 
ATOM     61  H   GLU C   5       6.589  17.457   9.417  1.00  0.00     0.163 HD
ATOM     62  CA  GLU C   5       4.879  18.580   8.616  1.00  0.00     0.090 C 
ATOM     63  HA  GLU C   5       3.793  18.353   8.180  1.00  0.00     0.087 H 
ATOM     64  C   GLU C   5       5.754  19.438   7.710  1.00  0.00     0.241 C 
ATOM     65  O   GLU C   5       6.968  19.536   7.920  1.00  0.00    -0.271 OA
ATOM     66  CB  GLU C   5       4.623  19.356   9.910  1.00  0.00    -0.029 C 
ATOM     67  HB2 GLU C   5       5.635  19.778  10.391  1.00  0.00     0.037 H 
ATOM     68  HB3 GLU C   5       4.130  18.730  10.799  1.00  0.00     0.037 H 
ATOM     69  CG  GLU C   5       3.706  20.581   9.802  1.00  0.00     0.018 C 
ATOM     70  HG2 GLU C   5       4.149  21.535   9.237  1.00  0.00     0.049 H 
ATOM     71  HG3 GLU C   5       2.607  20.402   9.367  1.00  0.00     0.049 H 
ATOM     72  CD  GLU C   5       3.365  21.213  11.153  1.00  0.00     0.172 C 
ATOM     73  OE1 GLU C   5       3.984  22.249  11.479  1.00  0.00    -0.648 OA
ATOM     74  OE2 GLU C   5       2.312  20.816  11.705  1.00  0.00    -0.648 OA
ATOM     75  N   VAL C   6       5.147  20.061   6.702  1.00  0.00    -0.346 N 
ATOM     76  H   VAL C   6       4.003  19.944   6.399  1.00  0.00     0.163 HD
ATOM     77  CA  VAL C   6       5.879  20.924   5.781  1.00  0.00     0.092 C 
ATOM     78  HA  VAL C   6       6.973  21.023   6.247  1.00  0.00     0.088 H 
ATOM     79  C   VAL C   6       5.295  22.330   5.781  1.00  0.00     0.241 C 
ATOM     80  O   VAL C   6       4.118  22.521   6.103  1.00  0.00    -0.271 OA
ATOM     81  CB  VAL C   6       5.807  20.374   4.355  1.00  0.00    -0.033 C 
ATOM     82  HB  VAL C   6       6.995  20.239   4.259  1.00  0.00     0.042 H 
ATOM     83  CG1 VAL C   6       5.725  21.347   3.184  1.00  0.00    -0.071 C 
ATOM     84 1HG1 VAL C   6       5.864  20.783   2.131  1.00  0.00     0.028 H 
ATOM     85 2HG1 VAL C   6       6.553  22.187   2.987  1.00  0.00     0.028 H 
ATOM     86 3HG1 VAL C   6       4.561  21.613   3.084  1.00  0.00     0.028 H 
ATOM     87  CG2 VAL C   6       5.603  18.885   4.039  1.00  0.00    -0.071 C 
ATOM     88 1HG2 VAL C   6       4.505  18.752   3.574  1.00  0.00     0.028 H 
ATOM     89 2HG2 VAL C   6       5.671  18.031   4.875  1.00  0.00     0.028 H 
ATOM     90 3HG2 VAL C   6       6.319  18.389   3.212  1.00  0.00     0.028 H 
ATOM     91  N   PHE C   7       6.114  23.317   5.419  1.00  0.00    -0.346 N 
ATOM     92  H   PHE C   7       7.285  23.147   5.537  1.00  0.00     0.163 HD
ATOM     93  CA  PHE C   7       5.665  24.702   5.361  1.00  0.00     0.093 C 
ATOM     94  HA  PHE C   7       4.935  24.869   6.291  1.00  0.00     0.088 H 
ATOM     95  C   PHE C   7       4.923  24.974   4.059  1.00  0.00     0.241 C 
ATOM     96  O   PHE C   7       4.626  24.046   3.300  1.00  0.00    -0.271 OA
ATOM     97  CB  PHE C   7       6.858  25.658   5.442  1.00  0.00    -0.014 C 
ATOM     98  HB2 PHE C   7       6.741  26.155   6.525  1.00  0.00     0.043 H 
ATOM     99  HB3 PHE C   7       7.981  25.251   5.529  1.00  0.00     0.043 H 
ATOM    100  CG  PHE C   7       7.171  26.743   4.416  1.00  0.00    -0.056 A 
ATOM    101  CD1 PHE C   7       7.360  26.423   3.064  1.00  0.00    -0.077 A 
ATOM    102  HD1 PHE C   7       7.956  25.422   2.819  1.00  0.00     0.084 H 
ATOM    103  CE1 PHE C   7       7.689  27.411   2.124  1.00  0.00    -0.082 A 
ATOM    104  HE1 PHE C   7       8.562  27.196   1.342  1.00  0.00     0.083 H 
ATOM    105  CZ  PHE C   7       7.800  28.753   2.509  1.00  0.00    -0.083 A 
ATOM    106  HZ  PHE C   7       8.135  29.622   1.771  1.00  0.00     0.083 H 
ATOM    107  CE2 PHE C   7       7.658  29.081   3.870  1.00  0.00    -0.082 A 
ATOM    108  HE2 PHE C   7       7.933  30.188   4.206  1.00  0.00     0.083 H 
ATOM    109  CD2 PHE C   7       7.301  28.092   4.793  1.00  0.00    -0.077 A 
ATOM    110  HD2 PHE C   7       7.467  28.502   5.897  1.00  0.00     0.084 H 
ATOM    111  N   TYR C   8       4.620  26.244   3.793  1.00  0.00    -0.346 N 
ATOM    112  H   TYR C   8       4.319  26.839   4.776  1.00  0.00     0.163 HD
ATOM    113  CA  TYR C   8       3.916  26.633   2.546  1.00  0.00     0.093 C 
ATOM    114  HA  TYR C   8       3.006  25.867   2.457  1.00  0.00     0.088 H 
ATOM    115  C   TYR C   8       4.909  26.665   1.367  1.00  0.00     0.241 C 
ATOM    116  O   TYR C   8       6.025  27.178   1.500  1.00  0.00    -0.271 OA
ATOM    117  CB  TYR C   8       3.288  28.020   2.694  1.00  0.00    -0.014 C 
ATOM    118  HB2 TYR C   8       4.000  28.914   2.345  1.00  0.00     0.043 H 
ATOM    119  HB3 TYR C   8       2.393  28.140   1.907  1.00  0.00     0.043 H 
ATOM    120  CG  TYR C   8       2.578  28.446   3.958  1.00  0.00    -0.056 A 
ATOM    121  CD1 TYR C   8       1.357  27.875   4.360  1.00  0.00    -0.074 A 
ATOM    122  HD1 TYR C   8       0.524  27.358   3.689  1.00  0.00     0.084 H 
ATOM    123  CE1 TYR C   8       0.842  28.168   5.631  1.00  0.00    -0.051 A 
ATOM    124  HE1 TYR C   8      -0.187  27.734   6.036  1.00  0.00     0.087 H 
ATOM    125  CZ  TYR C   8       1.547  29.047   6.487  1.00  0.00     0.065 A 
ATOM    126  OH  TYR C   8       1.123  29.255   7.763  1.00  0.00    -0.361 OA
ATOM    127  HH  TYR C   8       2.030  29.334   8.517  1.00  0.00     0.217 HD
ATOM    128  CE2 TYR C   8       2.698  29.715   6.028  1.00  0.00    -0.051 A 
ATOM    129  HE2 TYR C   8       3.106  30.677   6.594  1.00  0.00     0.087 H 
ATOM    130  CD2 TYR C   8       3.182  29.444   4.743  1.00  0.00    -0.074 A 
ATOM    131  HD2 TYR C   8       3.734  30.406   4.315  1.00  0.00     0.084 H 
ATOM    132  N   LYS C   9       4.546  26.132   0.205  1.00  0.00    -0.345 N 
ATOM    133  H   LYS C   9       3.420  25.784   0.049  1.00  0.00     0.163 HD
ATOM    134  CA  LYS C   9       5.446  26.214  -0.946  1.00  0.00     0.096 C 
ATOM    135  HA  LYS C   9       6.598  26.000  -0.735  1.00  0.00     0.089 H 
ATOM    136  C   LYS C   9       5.417  27.680  -1.532  1.00  0.00     0.196 C 
ATOM    137  O   LYS C   9       4.546  28.498  -1.140  1.00  0.00    -0.646 OA
ATOM    138  CB  LYS C   9       5.010  25.222  -2.159  1.00  0.00    -0.037 C 
ATOM    139  HB2 LYS C   9       5.135  25.943  -3.105  1.00  0.00     0.036 H 
ATOM    140  HB3 LYS C   9       3.826  25.062  -2.080  1.00  0.00     0.036 H 
ATOM    141  CG  LYS C   9       5.786  23.931  -2.415  1.00  0.00    -0.061 C 
ATOM    142  HG2 LYS C   9       6.942  24.123  -2.654  1.00  0.00     0.033 H 
ATOM    143  HG3 LYS C   9       5.794  23.222  -1.453  1.00  0.00     0.033 H 
ATOM    144  CD  LYS C   9       4.985  23.396  -3.603  1.00  0.00    -0.043 C 
ATOM    145  HD2 LYS C   9       4.618  24.087  -4.507  1.00  0.00     0.035 H 
ATOM    146  HD3 LYS C   9       3.949  22.986  -3.160  1.00  0.00     0.035 H 
ATOM    147  CE  LYS C   9       5.565  22.112  -4.154  1.00  0.00     0.080 C 
ATOM    148  HE2 LYS C   9       6.182  21.395  -3.420  1.00  0.00     0.075 H 
ATOM    149  HE3 LYS C   9       4.696  21.359  -4.490  1.00  0.00     0.075 H 
ATOM    150  NZ  LYS C   9       6.379  22.507  -5.315  1.00  0.00    -0.079 N 
ATOM    151  HZ1 LYS C   9       6.924  23.560  -5.491  1.00  0.00     0.274 HD
ATOM    152  HZ2 LYS C   9       7.309  21.751  -5.393  1.00  0.00     0.274 HD
ATOM    153  HZ3 LYS C   9       5.807  22.334  -6.356  1.00  0.00     0.274 HD
ATOM    154  OXT LYS C   9       6.246  28.030  -2.383  1.00  0.00    -0.646 OA
ENDROOT
TORSDOF 45
