REMARK  0 active torsions:
REMARK  status: ('A' for Active; 'I' for Inactive)
REMARK       I    between atoms: N_1  and  CA_5 
REMARK       I    between atoms: CA_5  and  C_7 
REMARK       I    between atoms: CA_5  and  CB_9 
REMARK       I    between atoms: C_7  and  N_14 
REMARK       I    between atoms: CB_9  and  OG_12 
REMARK       I    between atoms: N_14  and  CA_16 
REMARK       I    between atoms: CA_16  and  CB_20 
REMARK       I    between atoms: CA_16  and  C_18 
REMARK       I    between atoms: C_18  and  N_28 
REMARK       I    between atoms: CB_20  and  OG1_26 
REMARK       I    between atoms: CB_20  and  CG2_22 
REMARK       I    between atoms: N_28  and  CA_30 
REMARK       I    between atoms: CA_30  and  CB_34 
REMARK       I    between atoms: CA_30  and  C_32 
REMARK       I    between atoms: C_32  and  N_48 
REMARK       I    between atoms: CB_34  and  CG_37 
REMARK       I    between atoms: N_48  and  CA_50 
REMARK       I    between atoms: CA_50  and  C_52 
REMARK       I    between atoms: CA_50  and  CB_54 
REMARK       I    between atoms: C_52  and  N_60 
REMARK       I    between atoms: CB_54  and  CG_57 
REMARK       I    between atoms: N_60  and  CA_62 
REMARK       I    between atoms: CA_62  and  CB_66 
REMARK       I    between atoms: CA_62  and  C_64 
REMARK       I    between atoms: C_64  and  N_75 
REMARK       I    between atoms: CB_66  and  CG_69 
REMARK       I    between atoms: CG_69  and  CD_72 
REMARK       I    between atoms: N_75  and  CA_77 
REMARK       I    between atoms: CA_77  and  CB_81 
REMARK       I    between atoms: CA_77  and  C_79 
REMARK       I    between atoms: C_79  and  N_91 
REMARK       I    between atoms: CB_81  and  CG2_87 
REMARK       I    between atoms: CB_81  and  CG1_83 
REMARK       I    between atoms: N_91  and  CA_93 
REMARK       I    between atoms: CA_93  and  C_95 
REMARK       I    between atoms: CA_93  and  CB_97 
REMARK       I    between atoms: C_95  and  N_111 
REMARK       I    between atoms: CB_97  and  CG_100 
REMARK       I    between atoms: N_111  and  CA_113 
REMARK       I    between atoms: CA_113  and  CB_117 
REMARK       I    between atoms: CA_113  and  C_115 
REMARK       I    between atoms: CB_117  and  CG_120 
REMARK       I    between atoms: N_132  and  CB_117 
REMARK       I    between atoms: CZ_125  and  OH_126 
REMARK       I    between atoms: N_132  and  CA_134 
REMARK       I    between atoms: CA_134  and  CB_138 
REMARK       I    between atoms: CA_134  and  C_136 
REMARK       I    between atoms: CB_138  and  CG_141 
REMARK       I    between atoms: CG_141  and  CD_144 
REMARK       I    between atoms: CD_144  and  CE_147 
REMARK       I    between atoms: CE_147  and  NZ_150 
ROOT
ATOM      1  N   SER C   1       3.569  10.245  15.174  1.00  0.00    -0.064 N 
ATOM      2  H   SER C   1       2.725   9.423  15.395  1.00  0.00     0.275 HD
ATOM      3  H2  SER C   1       3.793  10.051  14.013  1.00  0.00     0.275 HD
ATOM      4  H3  SER C   1       4.540   9.795  15.711  1.00  0.00     0.275 HD
ATOM      5  CA  SER C   1       3.063  11.615  15.582  1.00  0.00     0.195 C 
ATOM      6  HA  SER C   1       1.900  11.518  15.825  1.00  0.00     0.102 H 
ATOM      7  C   SER C   1       3.501  12.536  14.439  1.00  0.00     0.251 C 
ATOM      8  O   SER C   1       4.647  12.524  13.986  1.00  0.00    -0.271 OA
ATOM      9  CB  SER C   1       3.799  12.126  16.857  1.00  0.00     0.051 C 
ATOM     10  HB2 SER C   1       3.236  13.077  17.312  1.00  0.00     0.077 H 
ATOM     11  HB3 SER C   1       4.950  12.409  16.708  1.00  0.00     0.077 H 
ATOM     12  OG  SER C   1       3.743  11.224  17.950  1.00  0.00    -0.398 OA
ATOM     13  HG  SER C   1       4.422  11.605  18.844  1.00  0.00     0.209 HD
ATOM     14  N   THR C   2       2.645  13.462  14.123  1.00  0.00    -0.344 N 
ATOM     15  H   THR C   2       1.770  13.792  14.857  1.00  0.00     0.163 HD
ATOM     16  CA  THR C   2       2.846  14.378  12.987  1.00  0.00     0.113 C 
ATOM     17  HA  THR C   2       3.310  13.642  12.170  1.00  0.00     0.091 H 
ATOM     18  C   THR C   2       3.766  15.521  13.358  1.00  0.00     0.243 C 
ATOM     19  O   THR C   2       3.873  15.884  14.534  1.00  0.00    -0.271 OA
ATOM     20  CB  THR C   2       1.511  14.974  12.535  1.00  0.00     0.060 C 
ATOM     21  HB  THR C   2       1.598  14.677  11.375  1.00  0.00     0.086 H 
ATOM     22  CG2 THR C   2       1.345  16.470  12.232  1.00  0.00    -0.050 C 
ATOM     23 1HG2 THR C   2       1.856  16.998  11.288  1.00  0.00     0.031 H 
ATOM     24 2HG2 THR C   2       1.430  17.094  13.249  1.00  0.00     0.031 H 
ATOM     25 3HG2 THR C   2       0.200  16.691  11.942  1.00  0.00     0.031 H 
ATOM     26  OG1 THR C   2       0.349  14.149  12.516  1.00  0.00    -0.393 OA
ATOM     27  HG1 THR C   2      -0.472  14.568  13.260  1.00  0.00     0.210 HD
ATOM     28  N   PHE C   3       4.439  16.099  12.364  1.00  0.00    -0.346 N 
ATOM     29  H   PHE C   3       4.427  15.668  11.255  1.00  0.00     0.163 HD
ATOM     30  CA  PHE C   3       5.339  17.221  12.598  1.00  0.00     0.093 C 
ATOM     31  HA  PHE C   3       5.435  17.406  13.772  1.00  0.00     0.088 H 
ATOM     32  C   PHE C   3       4.850  18.466  11.869  1.00  0.00     0.241 C 
ATOM     33  O   PHE C   3       4.629  18.435  10.654  1.00  0.00    -0.271 OA
ATOM     34  CB  PHE C   3       6.747  16.894  12.098  1.00  0.00    -0.014 C 
ATOM     35  HB2 PHE C   3       7.315  16.602  13.110  1.00  0.00     0.043 H 
ATOM     36  HB3 PHE C   3       6.799  15.852  11.508  1.00  0.00     0.043 H 
ATOM     37  CG  PHE C   3       7.777  17.565  11.216  1.00  0.00    -0.056 A 
ATOM     38  CD1 PHE C   3       7.533  17.814   9.853  1.00  0.00    -0.077 A 
ATOM     39  HD1 PHE C   3       6.603  17.524   9.177  1.00  0.00     0.084 H 
ATOM     40  CE1 PHE C   3       8.601  18.181   9.028  1.00  0.00    -0.082 A 
ATOM     41  HE1 PHE C   3       8.627  17.598   7.991  1.00  0.00     0.083 H 
ATOM     42  CZ  PHE C   3       9.856  18.484   9.584  1.00  0.00    -0.083 A 
ATOM     43  HZ  PHE C   3      10.831  18.323   8.923  1.00  0.00     0.083 H 
ATOM     44  CE2 PHE C   3      10.090  18.254  10.956  1.00  0.00    -0.082 A 
ATOM     45  HE2 PHE C   3      11.200  17.952  11.259  1.00  0.00     0.083 H 
ATOM     46  CD2 PHE C   3       9.033  17.883  11.774  1.00  0.00    -0.077 A 
ATOM     47  HD2 PHE C   3       9.434  17.611  12.860  1.00  0.00     0.084 H 
ATOM     48  N   ASP C   4       4.680  19.564  12.602  1.00  0.00    -0.345 N 
ATOM     49  H   ASP C   4       5.267  19.686  13.629  1.00  0.00     0.163 HD
ATOM     50  CA  ASP C   4       4.235  20.820  12.010  1.00  0.00     0.098 C 
ATOM     51  HA  ASP C   4       4.000  20.879  10.842  1.00  0.00     0.088 H 
ATOM     52  C   ASP C   4       5.262  21.920  12.242  1.00  0.00     0.241 C 
ATOM     53  O   ASP C   4       4.915  23.017  12.692  1.00  0.00    -0.271 OA
ATOM     54  CB  ASP C   4       2.907  21.265  12.627  1.00  0.00     0.043 C 
ATOM     55  HB2 ASP C   4       2.621  22.425  12.587  1.00  0.00     0.052 H 
ATOM     56  HB3 ASP C   4       2.003  20.756  12.033  1.00  0.00     0.052 H 
ATOM     57  CG  ASP C   4       2.565  20.853  14.062  1.00  0.00     0.175 C 
ATOM     58  OD1 ASP C   4       3.423  20.195  14.701  1.00  0.00    -0.648 OA
ATOM     59  OD2 ASP C   4       1.438  21.232  14.483  1.00  0.00    -0.648 OA
ATOM     60  N   GLU C   5       6.527  21.635  11.939  1.00  0.00    -0.346 N 
ATOM     61  H   GLU C   5       6.887  20.586  11.525  1.00  0.00     0.163 HD
ATOM     62  CA  GLU C   5       7.593  22.616  12.102  1.00  0.00     0.090 C 
ATOM     63  HA  GLU C   5       7.245  23.586  12.707  1.00  0.00     0.087 H 
ATOM     64  C   GLU C   5       7.949  23.253  10.764  1.00  0.00     0.241 C 
ATOM     65  O   GLU C   5       8.698  24.234  10.715  1.00  0.00    -0.271 OA
ATOM     66  CB  GLU C   5       8.852  21.954  12.667  1.00  0.00    -0.029 C 
ATOM     67  HB2 GLU C   5       9.018  22.696  13.593  1.00  0.00     0.037 H 
ATOM     68  HB3 GLU C   5       8.555  20.939  13.223  1.00  0.00     0.037 H 
ATOM     69  CG  GLU C   5      10.334  21.676  12.354  1.00  0.00     0.018 C 
ATOM     70  HG2 GLU C   5      10.863  22.685  11.991  1.00  0.00     0.049 H 
ATOM     71  HG3 GLU C   5      10.776  20.880  11.590  1.00  0.00     0.049 H 
ATOM     72  CD  GLU C   5      11.075  21.355  13.683  1.00  0.00     0.172 C 
ATOM     73  OE1 GLU C   5      11.919  22.205  14.058  1.00  0.00    -0.648 OA
ATOM     74  OE2 GLU C   5      10.964  20.239  14.259  1.00  0.00    -0.648 OA
ATOM     75  N   VAL C   6       7.416  22.702   9.675  1.00  0.00    -0.346 N 
ATOM     76  H   VAL C   6       6.398  22.099   9.629  1.00  0.00     0.163 HD
ATOM     77  CA  VAL C   6       7.670  23.237   8.342  1.00  0.00     0.092 C 
ATOM     78  HA  VAL C   6       8.572  24.018   8.349  1.00  0.00     0.088 H 
ATOM     79  C   VAL C   6       6.381  23.753   7.714  1.00  0.00     0.241 C 
ATOM     80  O   VAL C   6       5.356  23.064   7.731  1.00  0.00    -0.271 OA
ATOM     81  CB  VAL C   6       8.249  22.155   7.429  1.00  0.00    -0.033 C 
ATOM     82  HB  VAL C   6       7.353  21.367   7.541  1.00  0.00     0.042 H 
ATOM     83  CG1 VAL C   6       7.994  22.222   5.917  1.00  0.00    -0.071 C 
ATOM     84 1HG1 VAL C   6       9.082  22.337   5.422  1.00  0.00     0.028 H 
ATOM     85 2HG1 VAL C   6       7.537  21.264   5.354  1.00  0.00     0.028 H 
ATOM     86 3HG1 VAL C   6       7.427  23.077   5.303  1.00  0.00     0.028 H 
ATOM     87  CG2 VAL C   6       9.248  21.110   7.931  1.00  0.00    -0.071 C 
ATOM     88 1HG2 VAL C   6       9.376  20.169   7.203  1.00  0.00     0.028 H 
ATOM     89 2HG2 VAL C   6       9.253  20.880   9.099  1.00  0.00     0.028 H 
ATOM     90 3HG2 VAL C   6      10.310  21.652   7.786  1.00  0.00     0.028 H 
ATOM     91  N   PHE C   7       6.430  24.963   7.159  1.00  0.00    -0.346 N 
ATOM     92  H   PHE C   7       7.406  25.643   7.167  1.00  0.00     0.163 HD
ATOM     93  CA  PHE C   7       5.267  25.555   6.509  1.00  0.00     0.093 C 
ATOM     94  HA  PHE C   7       4.323  24.857   6.713  1.00  0.00     0.088 H 
ATOM     95  C   PHE C   7       5.489  25.670   5.007  1.00  0.00     0.241 C 
ATOM     96  O   PHE C   7       6.627  25.594   4.532  1.00  0.00    -0.271 OA
ATOM     97  CB  PHE C   7       4.998  26.956   7.063  1.00  0.00    -0.014 C 
ATOM     98  HB2 PHE C   7       5.745  27.337   7.917  1.00  0.00     0.043 H 
ATOM     99  HB3 PHE C   7       3.996  26.837   7.706  1.00  0.00     0.043 H 
ATOM    100  CG  PHE C   7       4.902  28.270   6.301  1.00  0.00    -0.056 A 
ATOM    101  CD1 PHE C   7       5.965  28.761   5.520  1.00  0.00    -0.077 A 
ATOM    102  HD1 PHE C   7       7.113  28.493   5.670  1.00  0.00     0.084 H 
ATOM    103  CE1 PHE C   7       5.897  30.034   4.929  1.00  0.00    -0.082 A 
ATOM    104  HE1 PHE C   7       6.839  30.605   4.483  1.00  0.00     0.083 H 
ATOM    105  CZ  PHE C   7       4.736  30.809   5.064  1.00  0.00    -0.083 A 
ATOM    106  HZ  PHE C   7       4.667  31.891   4.580  1.00  0.00     0.083 H 
ATOM    107  CE2 PHE C   7       3.673  30.334   5.844  1.00  0.00    -0.082 A 
ATOM    108  HE2 PHE C   7       2.812  31.105   6.120  1.00  0.00     0.083 H 
ATOM    109  CD2 PHE C   7       3.737  29.051   6.406  1.00  0.00    -0.077 A 
ATOM    110  HD2 PHE C   7       2.745  28.847   7.027  1.00  0.00     0.084 H 
ATOM    111  N   TYR C   8       4.407  25.853   4.251  1.00  0.00    -0.346 N 
ATOM    112  H   TYR C   8       3.346  25.739   4.769  1.00  0.00     0.163 HD
ATOM    113  CA  TYR C   8       4.500  25.999   2.778  1.00  0.00     0.094 C 
ATOM    114  HA  TYR C   8       5.132  25.045   2.447  1.00  0.00     0.088 H 
ATOM    115  C   TYR C   8       5.350  27.236   2.422  1.00  0.00     0.221 C 
ATOM    116  O   TYR C   8       5.192  28.301   3.028  1.00  0.00    -0.287 OA
ATOM    117  CB  TYR C   8       3.109  26.170   2.165  1.00  0.00     0.021 C 
ATOM    118  HB2 TYR C   8       2.573  26.334   1.106  1.00  0.00     0.071 H 
ATOM    119  HB3 TYR C   8       2.936  27.289   2.557  1.00  0.00     0.071 H 
ATOM    120  CG  TYR C   8       1.927  25.358   2.628  1.00  0.00    -0.040 A 
ATOM    121  CD1 TYR C   8       1.843  23.970   2.402  1.00  0.00    -0.073 A 
ATOM    122  HD1 TYR C   8       2.507  23.242   1.742  1.00  0.00     0.084 H 
ATOM    123  CE1 TYR C   8       0.810  23.229   3.013  1.00  0.00    -0.050 A 
ATOM    124  HE1 TYR C   8       0.658  22.065   2.840  1.00  0.00     0.087 H 
ATOM    125  CZ  TYR C   8      -0.112  23.891   3.835  1.00  0.00     0.065 A 
ATOM    126  OH  TYR C   8      -1.047  23.173   4.534  1.00  0.00    -0.361 OA
ATOM    127  HH  TYR C   8      -0.813  23.219   5.693  1.00  0.00     0.217 HD
ATOM    128  CE2 TYR C   8      -0.100  25.288   3.972  1.00  0.00    -0.050 A 
ATOM    129  HE2 TYR C   8      -0.984  25.839   4.543  1.00  0.00     0.087 H 
ATOM    130  CD2 TYR C   8       0.912  26.025   3.334  1.00  0.00    -0.073 A 
ATOM    131  HD2 TYR C   8       0.519  27.136   3.182  1.00  0.00     0.084 H 
ATOM    132  N   LYS C   9       4.546  26.132   0.205  1.00  0.00    -0.404 N 
ATOM    133  H   LYS C   9       4.064  25.052   0.166  1.00  0.00     0.154 HD
ATOM    134  CA  LYS C   9       5.446  26.214  -0.946  1.00  0.00     0.090 C 
ATOM    135  HA  LYS C   9       6.558  26.118  -0.528  1.00  0.00     0.089 H 
ATOM    136  C   LYS C   9       5.417  27.680  -1.532  1.00  0.00     0.196 C 
ATOM    137  O   LYS C   9       4.546  28.498  -1.140  1.00  0.00    -0.646 OA
ATOM    138  CB  LYS C   9       5.010  25.222  -2.159  1.00  0.00    -0.037 C 
ATOM    139  HB2 LYS C   9       5.318  25.886  -3.105  1.00  0.00     0.036 H 
ATOM    140  HB3 LYS C   9       3.815  25.249  -2.172  1.00  0.00     0.036 H 
ATOM    141  CG  LYS C   9       5.795  23.915  -2.411  1.00  0.00    -0.061 C 
ATOM    142  HG2 LYS C   9       6.958  24.138  -2.585  1.00  0.00     0.033 H 
ATOM    143  HG3 LYS C   9       5.826  23.182  -1.467  1.00  0.00     0.033 H 
ATOM    144  CD  LYS C   9       4.986  23.404  -3.599  1.00  0.00    -0.043 C 
ATOM    145  HD2 LYS C   9       4.534  24.070  -4.488  1.00  0.00     0.035 H 
ATOM    146  HD3 LYS C   9       3.956  22.985  -3.145  1.00  0.00     0.035 H 
ATOM    147  CE  LYS C   9       5.566  22.118  -4.150  1.00  0.00     0.080 C 
ATOM    148  HE2 LYS C   9       6.160  21.387  -3.410  1.00  0.00     0.075 H 
ATOM    149  HE3 LYS C   9       4.694  21.379  -4.511  1.00  0.00     0.075 H 
ATOM    150  NZ  LYS C   9       6.373  22.515  -5.305  1.00  0.00    -0.079 N 
ATOM    151  HZ1 LYS C   9       6.103  21.826  -6.250  1.00  0.00     0.274 HD
ATOM    152  HZ2 LYS C   9       7.535  22.274  -5.118  1.00  0.00     0.274 HD
ATOM    153  HZ3 LYS C   9       6.507  23.586  -5.822  1.00  0.00     0.274 HD
ATOM    154  OXT LYS C   9       6.287  28.025  -2.382  1.00  0.00    -0.646 OA
ENDROOT
TORSDOF 44
