REMARK  0 active torsions:
REMARK  status: ('A' for Active; 'I' for Inactive)
REMARK       I    between atoms: N_1  and  CA_5 
REMARK       I    between atoms: CA_5  and  CB_9 
REMARK       I    between atoms: CA_5  and  C_7 
REMARK       I    between atoms: C_7  and  N_14 
REMARK       I    between atoms: CB_9  and  OG_12 
REMARK       I    between atoms: N_14  and  CA_16 
REMARK       I    between atoms: CA_16  and  C_18 
REMARK       I    between atoms: CA_16  and  CB_20 
REMARK       I    between atoms: C_18  and  N_28 
REMARK       I    between atoms: CB_20  and  OG1_26 
REMARK       I    between atoms: CB_20  and  CG2_22 
REMARK       I    between atoms: N_28  and  CA_30 
REMARK       I    between atoms: CA_30  and  C_32 
REMARK       I    between atoms: CA_30  and  CB_34 
REMARK       I    between atoms: C_32  and  N_48 
REMARK       I    between atoms: CB_34  and  CG_37 
REMARK       I    between atoms: N_48  and  CA_50 
REMARK       I    between atoms: CA_50  and  CB_54 
REMARK       I    between atoms: CA_50  and  C_52 
REMARK       I    between atoms: C_52  and  N_60 
REMARK       I    between atoms: CB_54  and  CG_57 
REMARK       I    between atoms: N_60  and  CA_62 
REMARK       I    between atoms: CA_62  and  C_64 
REMARK       I    between atoms: CA_62  and  CB_66 
REMARK       I    between atoms: C_64  and  N_75 
REMARK       I    between atoms: CB_66  and  CG_69 
REMARK       I    between atoms: CG_69  and  CD_72 
REMARK       I    between atoms: N_75  and  CA_77 
REMARK       I    between atoms: CA_77  and  CB_81 
REMARK       I    between atoms: CA_77  and  C_79 
REMARK       I    between atoms: C_79  and  N_91 
REMARK       I    between atoms: CB_81  and  CG2_87 
REMARK       I    between atoms: CB_81  and  CG1_83 
REMARK       I    between atoms: N_91  and  CA_93 
REMARK       I    between atoms: CA_93  and  C_95 
REMARK       I    between atoms: CA_93  and  CB_97 
REMARK       I    between atoms: C_95  and  N_111 
REMARK       I    between atoms: CB_97  and  CG_100 
REMARK       I    between atoms: N_111  and  CA_113 
REMARK       I    between atoms: CA_113  and  C_115 
REMARK       I    between atoms: CA_113  and  CB_117 
REMARK       I    between atoms: C_115  and  N_132 
REMARK       I    between atoms: CB_117  and  CG_120 
REMARK       I    between atoms: CZ_125  and  OH_126 
REMARK       I    between atoms: N_132  and  CA_134 
REMARK       I    between atoms: CA_134  and  CB_138 
REMARK       I    between atoms: CA_134  and  C_136 
REMARK       I    between atoms: CB_138  and  CG_141 
REMARK       I    between atoms: CG_141  and  CD_144 
REMARK       I    between atoms: CD_144  and  CE_147 
REMARK       I    between atoms: CE_147  and  NZ_150 
ROOT
ATOM      1  N   SER C   1       3.569  10.245  15.174  1.00  0.00    -0.064 N 
ATOM      2  H   SER C   1       3.219   9.409  15.958  1.00  0.00     0.275 HD
ATOM      3  H2  SER C   1       4.738  10.049  15.001  1.00  0.00     0.275 HD
ATOM      4  H3  SER C   1       3.048   9.889  14.154  1.00  0.00     0.275 HD
ATOM      5  CA  SER C   1       3.063  11.615  15.582  1.00  0.00     0.195 C 
ATOM      6  HA  SER C   1       1.879  11.646  15.719  1.00  0.00     0.102 H 
ATOM      7  C   SER C   1       3.501  12.536  14.439  1.00  0.00     0.251 C 
ATOM      8  O   SER C   1       4.647  12.524  13.986  1.00  0.00    -0.271 OA
ATOM      9  CB  SER C   1       3.799  12.126  16.857  1.00  0.00     0.051 C 
ATOM     10  HB2 SER C   1       3.197  13.045  17.332  1.00  0.00     0.077 H 
ATOM     11  HB3 SER C   1       4.937  12.459  16.720  1.00  0.00     0.077 H 
ATOM     12  OG  SER C   1       3.736  11.220  17.943  1.00  0.00    -0.398 OA
ATOM     13  HG  SER C   1       4.470  11.548  18.814  1.00  0.00     0.209 HD
ATOM     14  N   THR C   2       3.008  13.920  14.173  1.00  0.00    -0.344 N 
ATOM     15  H   THR C   2       3.436  14.575  15.067  1.00  0.00     0.163 HD
ATOM     16  CA  THR C   2       2.533  14.624  12.969  1.00  0.00     0.113 C 
ATOM     17  HA  THR C   2       1.715  13.804  12.678  1.00  0.00     0.091 H 
ATOM     18  C   THR C   2       3.647  14.805  11.962  1.00  0.00     0.243 C 
ATOM     19  O   THR C   2       4.826  14.835  12.329  1.00  0.00    -0.271 OA
ATOM     20  CB  THR C   2       1.996  16.009  13.333  1.00  0.00     0.060 C 
ATOM     21  HB  THR C   2       0.938  15.859  12.787  1.00  0.00     0.086 H 
ATOM     22  CG2 THR C   2       2.451  17.260  12.591  1.00  0.00    -0.050 C 
ATOM     23 1HG2 THR C   2       3.378  17.121  11.841  1.00  0.00     0.031 H 
ATOM     24 2HG2 THR C   2       3.235  17.756  13.375  1.00  0.00     0.031 H 
ATOM     25 3HG2 THR C   2       1.551  17.929  13.036  1.00  0.00     0.031 H 
ATOM     26  OG1 THR C   2       1.252  16.158  14.534  1.00  0.00    -0.393 OA
ATOM     27  HG1 THR C   2       1.904  16.676  15.378  1.00  0.00     0.210 HD
ATOM     28  N   PHE C   3       3.289  14.927  10.685  1.00  0.00    -0.346 N 
ATOM     29  H   PHE C   3       2.284  14.389  10.341  1.00  0.00     0.163 HD
ATOM     30  CA  PHE C   3       4.275  15.125   9.629  1.00  0.00     0.088 C 
ATOM     31  HA  PHE C   3       5.390  15.264  10.025  1.00  0.00     0.087 H 
ATOM     32  C   PHE C   3       3.953  16.375   8.819  1.00  0.00     0.221 C 
ATOM     33  O   PHE C   3       4.448  16.542   7.699  1.00  0.00    -0.278 OA
ATOM     34  CB  PHE C   3       4.291  13.928   8.677  1.00  0.00    -0.014 C 
ATOM     35  HB2 PHE C   3       4.431  12.940   9.336  1.00  0.00     0.043 H 
ATOM     36  HB3 PHE C   3       3.285  13.899   8.032  1.00  0.00     0.043 H 
ATOM     37  CG  PHE C   3       5.322  13.571   7.615  1.00  0.00    -0.056 A 
ATOM     38  CD1 PHE C   3       6.479  14.319   7.363  1.00  0.00    -0.077 A 
ATOM     39  HD1 PHE C   3       7.210  14.755   8.192  1.00  0.00     0.084 H 
ATOM     40  CE1 PHE C   3       7.286  14.004   6.244  1.00  0.00    -0.082 A 
ATOM     41  HE1 PHE C   3       8.254  14.612   5.923  1.00  0.00     0.083 H 
ATOM     42  CZ  PHE C   3       6.992  12.879   5.459  1.00  0.00    -0.083 A 
ATOM     43  HZ  PHE C   3       7.707  12.561   4.565  1.00  0.00     0.083 H 
ATOM     44  CE2 PHE C   3       5.889  12.083   5.756  1.00  0.00    -0.082 A 
ATOM     45  HE2 PHE C   3       5.744  11.070   5.152  1.00  0.00     0.083 H 
ATOM     46  CD2 PHE C   3       5.058  12.429   6.841  1.00  0.00    -0.077 A 
ATOM     47  HD2 PHE C   3       4.236  11.586   7.005  1.00  0.00     0.084 H 
ATOM     48  N   ASP C   4       3.126  17.257   9.378  1.00  0.00    -0.248 NA
ATOM     49  H   ASP C   4       2.096  16.654   9.364  1.00  0.00     0.131 HD
ATOM     50  CA  ASP C   4       2.762  18.498   8.705  1.00  0.00     0.080 C 
ATOM     51  HA  ASP C   4       2.585  18.441   7.526  1.00  0.00     0.079 H 
ATOM     52  C   ASP C   4       3.849  19.550   8.888  1.00  0.00     0.216 C 
ATOM     53  O   ASP C   4       3.598  20.748   8.722  1.00  0.00    -0.278 OA
ATOM     54  CB  ASP C   4       1.455  19.055   9.275  1.00  0.00     0.038 C 
ATOM     55  HB2 ASP C   4       1.268  20.221   9.077  1.00  0.00     0.052 H 
ATOM     56  HB3 ASP C   4       0.530  18.591   8.669  1.00  0.00     0.052 H 
ATOM     57  CG  ASP C   4       1.039  18.878  10.711  1.00  0.00     0.174 C 
ATOM     58  OD1 ASP C   4       1.985  18.442  11.419  1.00  0.00    -0.648 OA
ATOM     59  OD2 ASP C   4      -0.032  19.371  11.106  1.00  0.00    -0.648 OA
ATOM     60  N   GLU C   5       5.059  19.110   9.230  1.00  0.00    -0.248 NA
ATOM     61  H   GLU C   5       5.074  18.438  10.212  1.00  0.00     0.131 HD
ATOM     62  CA  GLU C   5       6.182  20.022   9.413  1.00  0.00     0.076 C 
ATOM     63  HA  GLU C   5       5.883  20.879  10.191  1.00  0.00     0.079 H 
ATOM     64  C   GLU C   5       6.460  20.799   8.133  1.00  0.00     0.236 C 
ATOM     65  O   GLU C   5       7.123  21.841   8.162  1.00  0.00    -0.272 OA
ATOM     66  CB  GLU C   5       7.447  19.248   9.789  1.00  0.00    -0.033 C 
ATOM     67  HB2 GLU C   5       7.243  18.142  10.191  1.00  0.00     0.036 H 
ATOM     68  HB3 GLU C   5       7.738  19.920  10.738  1.00  0.00     0.036 H 
ATOM     69  CG  GLU C   5       8.899  19.055   9.320  1.00  0.00     0.018 C 
ATOM     70  HG2 GLU C   5       9.446  20.015   8.865  1.00  0.00     0.049 H 
ATOM     71  HG3 GLU C   5       9.107  18.233   8.477  1.00  0.00     0.049 H 
ATOM     72  CD  GLU C   5       9.744  18.545  10.514  1.00  0.00     0.172 C 
ATOM     73  OE1 GLU C   5      10.626  19.327  10.939  1.00  0.00    -0.648 OA
ATOM     74  OE2 GLU C   5       9.642  17.358  10.935  1.00  0.00    -0.648 OA
ATOM     75  N   VAL C   6       5.958  20.299   7.005  1.00  0.00    -0.346 N 
ATOM     76  H   VAL C   6       6.069  19.116   6.979  1.00  0.00     0.163 HD
ATOM     77  CA  VAL C   6       6.143  20.967   5.721  1.00  0.00     0.092 C 
ATOM     78  HA  VAL C   6       7.321  20.956   5.527  1.00  0.00     0.088 H 
ATOM     79  C   VAL C   6       5.520  22.356   5.741  1.00  0.00     0.241 C 
ATOM     80  O   VAL C   6       4.355  22.516   6.118  1.00  0.00    -0.271 OA
ATOM     81  CB  VAL C   6       5.486  20.163   4.597  1.00  0.00    -0.033 C 
ATOM     82  HB  VAL C   6       4.382  20.233   5.058  1.00  0.00     0.042 H 
ATOM     83  CG1 VAL C   6       4.989  20.866   3.330  1.00  0.00    -0.071 C 
ATOM     84 1HG1 VAL C   6       4.417  20.153   2.548  1.00  0.00     0.028 H 
ATOM     85 2HG1 VAL C   6       5.979  21.111   2.700  1.00  0.00     0.028 H 
ATOM     86 3HG1 VAL C   6       4.188  21.757   3.314  1.00  0.00     0.028 H 
ATOM     87  CG2 VAL C   6       5.519  18.633   4.591  1.00  0.00    -0.071 C 
ATOM     88 1HG2 VAL C   6       6.680  18.674   4.270  1.00  0.00     0.028 H 
ATOM     89 2HG2 VAL C   6       4.422  18.374   4.172  1.00  0.00     0.028 H 
ATOM     90 3HG2 VAL C   6       5.652  17.447   4.789  1.00  0.00     0.028 H 
ATOM     91  N   PHE C   7       6.294  23.363   5.337  1.00  0.00    -0.346 N 
ATOM     92  H   PHE C   7       7.358  23.210   4.827  1.00  0.00     0.163 HD
ATOM     93  CA  PHE C   7       5.804  24.735   5.293  1.00  0.00     0.093 C 
ATOM     94  HA  PHE C   7       5.004  24.829   6.173  1.00  0.00     0.088 H 
ATOM     95  C   PHE C   7       5.080  25.008   3.981  1.00  0.00     0.241 C 
ATOM     96  O   PHE C   7       4.937  24.110   3.145  1.00  0.00    -0.271 OA
ATOM     97  CB  PHE C   7       6.965  25.725   5.415  1.00  0.00    -0.014 C 
ATOM     98  HB2 PHE C   7       6.897  26.252   6.491  1.00  0.00     0.043 H 
ATOM     99  HB3 PHE C   7       8.051  25.248   5.586  1.00  0.00     0.043 H 
ATOM    100  CG  PHE C   7       7.295  26.833   4.421  1.00  0.00    -0.056 A 
ATOM    101  CD1 PHE C   7       7.554  26.546   3.071  1.00  0.00    -0.077 A 
ATOM    102  HD1 PHE C   7       8.154  25.555   2.798  1.00  0.00     0.084 H 
ATOM    103  CE1 PHE C   7       7.915  27.559   2.170  1.00  0.00    -0.082 A 
ATOM    104  HE1 PHE C   7       8.727  27.381   1.318  1.00  0.00     0.083 H 
ATOM    105  CZ  PHE C   7       7.979  28.893   2.592  1.00  0.00    -0.083 A 
ATOM    106  HZ  PHE C   7       8.296  29.780   1.866  1.00  0.00     0.083 H 
ATOM    107  CE2 PHE C   7       7.765  29.190   3.947  1.00  0.00    -0.082 A 
ATOM    108  HE2 PHE C   7       8.077  30.272   4.328  1.00  0.00     0.083 H 
ATOM    109  CD2 PHE C   7       7.377  28.176   4.833  1.00  0.00    -0.077 A 
ATOM    110  HD2 PHE C   7       7.402  28.560   5.957  1.00  0.00     0.084 H 
ATOM    111  N   TYR C   8       4.620  26.244   3.793  1.00  0.00    -0.346 N 
ATOM    112  H   TYR C   8       4.344  26.836   4.785  1.00  0.00     0.163 HD
ATOM    113  CA  TYR C   8       3.916  26.633   2.546  1.00  0.00     0.093 C 
ATOM    114  HA  TYR C   8       3.051  25.816   2.463  1.00  0.00     0.088 H 
ATOM    115  C   TYR C   8       4.909  26.665   1.367  1.00  0.00     0.241 C 
ATOM    116  O   TYR C   8       6.025  27.178   1.500  1.00  0.00    -0.271 OA
ATOM    117  CB  TYR C   8       3.288  28.020   2.694  1.00  0.00    -0.014 C 
ATOM    118  HB2 TYR C   8       4.043  28.871   2.318  1.00  0.00     0.043 H 
ATOM    119  HB3 TYR C   8       2.380  28.165   1.926  1.00  0.00     0.043 H 
ATOM    120  CG  TYR C   8       2.577  28.449   3.956  1.00  0.00    -0.056 A 
ATOM    121  CD1 TYR C   8       1.360  27.873   4.360  1.00  0.00    -0.074 A 
ATOM    122  HD1 TYR C   8       0.544  27.271   3.741  1.00  0.00     0.084 H 
ATOM    123  CE1 TYR C   8       0.841  28.170   5.635  1.00  0.00    -0.051 A 
ATOM    124  HE1 TYR C   8      -0.169  27.706   6.054  1.00  0.00     0.087 H 
ATOM    125  CZ  TYR C   8       1.545  29.048   6.489  1.00  0.00     0.065 A 
ATOM    126  OH  TYR C   8       1.122  29.254   7.764  1.00  0.00    -0.361 OA
ATOM    127  HH  TYR C   8       1.438  30.328   8.149  1.00  0.00     0.217 HD
ATOM    128  CE2 TYR C   8       2.696  29.716   6.033  1.00  0.00    -0.051 A 
ATOM    129  HE2 TYR C   8       3.336  30.482   6.677  1.00  0.00     0.087 H 
ATOM    130  CD2 TYR C   8       3.184  29.443   4.744  1.00  0.00    -0.074 A 
ATOM    131  HD2 TYR C   8       3.812  30.369   4.341  1.00  0.00     0.084 H 
ATOM    132  N   LYS C   9       4.546  26.132   0.205  1.00  0.00    -0.345 N 
ATOM    133  H   LYS C   9       3.465  25.662   0.054  1.00  0.00     0.163 HD
ATOM    134  CA  LYS C   9       5.446  26.214  -0.946  1.00  0.00     0.096 C 
ATOM    135  HA  LYS C   9       6.600  26.019  -0.732  1.00  0.00     0.089 H 
ATOM    136  C   LYS C   9       5.417  27.680  -1.532  1.00  0.00     0.196 C 
ATOM    137  O   LYS C   9       4.546  28.498  -1.140  1.00  0.00    -0.646 OA
ATOM    138  CB  LYS C   9       5.010  25.222  -2.159  1.00  0.00    -0.037 C 
ATOM    139  HB2 LYS C   9       3.833  25.050  -2.054  1.00  0.00     0.036 H 
ATOM    140  HB3 LYS C   9       5.126  25.887  -3.145  1.00  0.00     0.036 H 
ATOM    141  CG  LYS C   9       5.790  23.931  -2.414  1.00  0.00    -0.061 C 
ATOM    142  HG2 LYS C   9       5.764  23.240  -1.437  1.00  0.00     0.033 H 
ATOM    143  HG3 LYS C   9       6.947  24.149  -2.621  1.00  0.00     0.033 H 
ATOM    144  CD  LYS C   9       4.991  23.393  -3.605  1.00  0.00    -0.043 C 
ATOM    145  HD2 LYS C   9       3.913  22.991  -3.259  1.00  0.00     0.035 H 
ATOM    146  HD3 LYS C   9       4.644  24.104  -4.504  1.00  0.00     0.035 H 
ATOM    147  CE  LYS C   9       5.563  22.107  -4.160  1.00  0.00     0.080 C 
ATOM    148  HE2 LYS C   9       6.171  21.372  -3.438  1.00  0.00     0.075 H 
ATOM    149  HE3 LYS C   9       4.689  21.383  -4.546  1.00  0.00     0.075 H 
ATOM    150  NZ  LYS C   9       6.379  22.505  -5.313  1.00  0.00    -0.079 N 
ATOM    151  HZ1 LYS C   9       6.589  21.521  -5.973  1.00  0.00     0.274 HD
ATOM    152  HZ2 LYS C   9       6.025  23.261  -6.175  1.00  0.00     0.274 HD
ATOM    153  HZ3 LYS C   9       7.498  22.854  -5.063  1.00  0.00     0.274 HD
ATOM    154  OXT LYS C   9       6.213  28.131  -2.395  1.00  0.00    -0.646 OA
ENDROOT
TORSDOF 43
