REMARK  0 active torsions:
REMARK  status: ('A' for Active; 'I' for Inactive)
REMARK       I    between atoms: N_1  and  CA_5 
REMARK       I    between atoms: CA_5  and  C_7 
REMARK       I    between atoms: CA_5  and  CB_9 
REMARK       I    between atoms: C_7  and  N_14 
REMARK       I    between atoms: CB_9  and  OG_12 
REMARK       I    between atoms: N_14  and  CA_16 
REMARK       I    between atoms: CA_16  and  CB_20 
REMARK       I    between atoms: CA_16  and  C_18 
REMARK       I    between atoms: C_18  and  N_28 
REMARK       I    between atoms: CB_20  and  CG2_22 
REMARK       I    between atoms: CB_20  and  OG1_26 
REMARK       I    between atoms: N_28  and  CA_30 
REMARK       I    between atoms: CA_30  and  CB_34 
REMARK       I    between atoms: CA_30  and  C_32 
REMARK       I    between atoms: C_32  and  N_48 
REMARK       I    between atoms: CB_34  and  CG_37 
REMARK       I    between atoms: N_48  and  CA_50 
REMARK       I    between atoms: CA_50  and  CB_54 
REMARK       I    between atoms: CA_50  and  C_52 
REMARK       I    between atoms: C_52  and  N_60 
REMARK       I    between atoms: CB_54  and  CG_57 
REMARK       I    between atoms: N_60  and  CA_62 
REMARK       I    between atoms: CA_62  and  CB_66 
REMARK       I    between atoms: CA_62  and  C_64 
REMARK       I    between atoms: C_64  and  N_75 
REMARK       I    between atoms: CB_66  and  CG_69 
REMARK       I    between atoms: CG_69  and  CD_72 
REMARK       I    between atoms: N_75  and  CA_77 
REMARK       I    between atoms: CA_77  and  C_79 
REMARK       I    between atoms: CA_77  and  CB_81 
REMARK       I    between atoms: C_79  and  N_91 
REMARK       I    between atoms: CB_81  and  CG1_83 
REMARK       I    between atoms: CB_81  and  CG2_87 
REMARK       I    between atoms: N_91  and  CA_93 
REMARK       I    between atoms: CA_93  and  C_95 
REMARK       I    between atoms: CA_93  and  CB_97 
REMARK       I    between atoms: C_95  and  N_111 
REMARK       I    between atoms: CB_97  and  CG_100 
REMARK       I    between atoms: N_111  and  CA_113 
REMARK       I    between atoms: CA_113  and  CB_117 
REMARK       I    between atoms: CA_113  and  C_115 
REMARK       I    between atoms: C_115  and  N_132 
REMARK       I    between atoms: CB_117  and  CG_120 
REMARK       I    between atoms: CZ_125  and  OH_126 
REMARK       I    between atoms: N_132  and  CA_134 
REMARK       I    between atoms: CA_134  and  CB_138 
REMARK       I    between atoms: CA_134  and  C_136 
REMARK       I    between atoms: CB_138  and  CG_141 
REMARK       I    between atoms: CG_141  and  CD_144 
REMARK       I    between atoms: CD_144  and  CE_147 
REMARK       I    between atoms: CE_147  and  NZ_150 
ROOT
ATOM      1  N   SER C   1       3.569  10.245  15.174  1.00  0.00    -0.064 N 
ATOM      2  H   SER C   1       2.639   9.609  14.763  1.00  0.00     0.275 HD
ATOM      3  H2  SER C   1       4.412  10.068  14.341  1.00  0.00     0.275 HD
ATOM      4  H3  SER C   1       3.981   9.549  16.058  1.00  0.00     0.275 HD
ATOM      5  CA  SER C   1       3.063  11.615  15.582  1.00  0.00     0.195 C 
ATOM      6  HA  SER C   1       1.905  11.601  15.867  1.00  0.00     0.102 H 
ATOM      7  C   SER C   1       3.501  12.536  14.439  1.00  0.00     0.251 C 
ATOM      8  O   SER C   1       4.647  12.524  13.986  1.00  0.00    -0.271 OA
ATOM      9  CB  SER C   1       3.799  12.126  16.857  1.00  0.00     0.051 C 
ATOM     10  HB2 SER C   1       3.341  13.192  17.149  1.00  0.00     0.077 H 
ATOM     11  HB3 SER C   1       4.984  12.284  16.805  1.00  0.00     0.077 H 
ATOM     12  OG  SER C   1       3.741  11.225  17.948  1.00  0.00    -0.398 OA
ATOM     13  HG  SER C   1       3.655  11.816  18.972  1.00  0.00     0.209 HD
ATOM     14  N   THR C   2       3.077  13.099  13.772  1.00  0.00    -0.344 N 
ATOM     15  H   THR C   2       2.232  12.406  13.271  1.00  0.00     0.163 HD
ATOM     16  CA  THR C   2       2.819  14.304  12.964  1.00  0.00     0.113 C 
ATOM     17  HA  THR C   2       2.443  13.893  11.907  1.00  0.00     0.091 H 
ATOM     18  C   THR C   2       4.106  15.028  12.629  1.00  0.00     0.243 C 
ATOM     19  O   THR C   2       5.098  14.913  13.356  1.00  0.00    -0.271 OA
ATOM     20  CB  THR C   2       1.914  15.277  13.723  1.00  0.00     0.060 C 
ATOM     21  HB  THR C   2       1.077  15.383  12.868  1.00  0.00     0.086 H 
ATOM     22  CG2 THR C   2       2.206  16.781  13.790  1.00  0.00    -0.050 C 
ATOM     23 1HG2 THR C   2       2.029  17.500  12.851  1.00  0.00     0.031 H 
ATOM     24 2HG2 THR C   2       3.220  16.991  14.390  1.00  0.00     0.031 H 
ATOM     25 3HG2 THR C   2       1.439  17.286  14.565  1.00  0.00     0.031 H 
ATOM     26  OG1 THR C   2       0.825  14.775  14.486  1.00  0.00    -0.393 OA
ATOM     27  HG1 THR C   2       0.945  15.087  15.623  1.00  0.00     0.210 HD
ATOM     28  N   PHE C   3       4.104  15.778  11.529  1.00  0.00    -0.346 N 
ATOM     29  H   PHE C   3       3.176  15.862  10.790  1.00  0.00     0.163 HD
ATOM     30  CA  PHE C   3       5.279  16.536  11.118  1.00  0.00     0.093 C 
ATOM     31  HA  PHE C   3       6.226  16.098  11.696  1.00  0.00     0.088 H 
ATOM     32  C   PHE C   3       5.037  18.033  11.272  1.00  0.00     0.241 C 
ATOM     33  O   PHE C   3       4.125  18.588  10.651  1.00  0.00    -0.271 OA
ATOM     34  CB  PHE C   3       5.615  16.254   9.652  1.00  0.00    -0.017 C 
ATOM     35  HB2 PHE C   3       4.841  15.488   9.152  1.00  0.00     0.043 H 
ATOM     36  HB3 PHE C   3       6.534  15.494   9.773  1.00  0.00     0.043 H 
ATOM     37  CG  PHE C   3       5.956  17.029   8.400  1.00  0.00    -0.069 A 
ATOM     38  CD1 PHE C   3       5.005  17.859   7.795  1.00  0.00    -0.005 A 
ATOM     39  HD1 PHE C   3       3.975  17.262   7.724  1.00  0.00     0.054 H 
ATOM     40  CE1 PHE C   3       5.249  18.343   6.492  1.00  0.00    -0.094 A 
ATOM     41  HE1 PHE C   3       4.472  18.162   5.606  1.00  0.00     0.077 H 
ATOM     42  CZ  PHE C   3       6.513  18.179   5.911  1.00  0.00    -0.086 A 
ATOM     43  HZ  PHE C   3       6.759  18.479   4.787  1.00  0.00     0.083 H 
ATOM     44  CE2 PHE C   3       7.466  17.361   6.519  1.00  0.00    -0.083 A 
ATOM     45  HE2 PHE C   3       8.322  16.904   5.832  1.00  0.00     0.083 H 
ATOM     46  CD2 PHE C   3       7.222  16.852   7.811  1.00  0.00    -0.080 A 
ATOM     47  HD2 PHE C   3       8.121  16.135   8.112  1.00  0.00     0.083 H 
ATOM     48  N   ASP C   4       5.849  18.691  12.098  1.00  0.00    -0.345 N 
ATOM     49  H   ASP C   4       6.415  17.939  12.820  1.00  0.00     0.163 HD
ATOM     50  CA  ASP C   4       5.725  20.128  12.310  1.00  0.00     0.098 C 
ATOM     51  HA  ASP C   4       4.662  20.627  12.100  1.00  0.00     0.088 H 
ATOM     52  C   ASP C   4       6.706  20.890  11.428  1.00  0.00     0.241 C 
ATOM     53  O   ASP C   4       6.930  22.088  11.628  1.00  0.00    -0.271 OA
ATOM     54  CB  ASP C   4       6.016  20.483  13.769  1.00  0.00     0.043 C 
ATOM     55  HB2 ASP C   4       5.018  20.336  14.413  1.00  0.00     0.052 H 
ATOM     56  HB3 ASP C   4       6.319  21.621  13.983  1.00  0.00     0.052 H 
ATOM     57  CG  ASP C   4       7.027  19.709  14.591  1.00  0.00     0.175 C 
ATOM     58  OD1 ASP C   4       7.729  18.908  13.923  1.00  0.00    -0.648 OA
ATOM     59  OD2 ASP C   4       7.212  20.040  15.782  1.00  0.00    -0.648 OA
ATOM     60  N   GLU C   5       7.294  20.203  10.449  1.00  0.00    -0.346 N 
ATOM     61  H   GLU C   5       7.463  19.035  10.553  1.00  0.00     0.163 HD
ATOM     62  CA  GLU C   5       8.236  20.831   9.531  1.00  0.00     0.085 C 
ATOM     63  HA  GLU C   5       8.710  21.841   9.954  1.00  0.00     0.086 H 
ATOM     64  C   GLU C   5       7.533  21.263   8.250  1.00  0.00     0.221 C 
ATOM     65  O   GLU C   5       8.186  21.649   7.276  1.00  0.00    -0.278 OA
ATOM     66  CB  GLU C   5       9.355  19.857   9.159  1.00  0.00    -0.029 C 
ATOM     67  HB2 GLU C   5       9.263  19.391   8.064  1.00  0.00     0.037 H 
ATOM     68  HB3 GLU C   5       9.587  18.932   9.881  1.00  0.00     0.037 H 
ATOM     69  CG  GLU C   5      10.792  20.400   9.190  1.00  0.00     0.018 C 
ATOM     70  HG2 GLU C   5      11.117  20.956  10.198  1.00  0.00     0.049 H 
ATOM     71  HG3 GLU C   5      11.056  21.180   8.324  1.00  0.00     0.049 H 
ATOM     72  CD  GLU C   5      11.895  19.339   9.059  1.00  0.00     0.172 C 
ATOM     73  OE1 GLU C   5      12.381  19.153   7.927  1.00  0.00    -0.648 OA
ATOM     74  OE2 GLU C   5      12.458  18.994  10.116  1.00  0.00    -0.648 OA
ATOM     75  N   VAL C   6       6.202  21.201   8.244  1.00  0.00    -0.247 NA
ATOM     76  H   VAL C   6       5.850  21.856   9.173  1.00  0.00     0.131 HD
ATOM     77  CA  VAL C   6       5.422  21.607   7.080  1.00  0.00     0.079 C 
ATOM     78  HA  VAL C   6       5.749  20.962   6.134  1.00  0.00     0.079 H 
ATOM     79  C   VAL C   6       5.582  23.098   6.818  1.00  0.00     0.236 C 
ATOM     80  O   VAL C   6       5.430  23.916   7.731  1.00  0.00    -0.272 OA
ATOM     81  CB  VAL C   6       3.936  21.316   7.302  1.00  0.00    -0.037 C 
ATOM     82  HB  VAL C   6       3.774  22.012   8.265  1.00  0.00     0.042 H 
ATOM     83  CG1 VAL C   6       2.887  22.183   6.595  1.00  0.00    -0.071 C 
ATOM     84 1HG1 VAL C   6       2.782  23.372   6.722  1.00  0.00     0.028 H 
ATOM     85 2HG1 VAL C   6       1.741  21.879   6.785  1.00  0.00     0.028 H 
ATOM     86 3HG1 VAL C   6       2.965  21.975   5.416  1.00  0.00     0.028 H 
ATOM     87  CG2 VAL C   6       3.407  20.111   8.078  1.00  0.00    -0.071 C 
ATOM     88 1HG2 VAL C   6       2.456  20.258   8.801  1.00  0.00     0.028 H 
ATOM     89 2HG2 VAL C   6       4.216  19.796   8.888  1.00  0.00     0.028 H 
ATOM     90 3HG2 VAL C   6       2.864  19.435   7.252  1.00  0.00     0.028 H 
ATOM     91  N   PHE C   7       5.887  23.456   5.571  1.00  0.00    -0.346 N 
ATOM     92  H   PHE C   7       6.174  22.705   4.695  1.00  0.00     0.163 HD
ATOM     93  CA  PHE C   7       6.047  24.854   5.193  1.00  0.00     0.093 C 
ATOM     94  HA  PHE C   7       5.485  25.511   6.014  1.00  0.00     0.088 H 
ATOM     95  C   PHE C   7       5.356  25.136   3.865  1.00  0.00     0.241 C 
ATOM     96  O   PHE C   7       5.485  24.359   2.913  1.00  0.00    -0.271 OA
ATOM     97  CB  PHE C   7       7.529  25.205   5.046  1.00  0.00    -0.014 C 
ATOM     98  HB2 PHE C   7       8.356  24.338   5.097  1.00  0.00     0.043 H 
ATOM     99  HB3 PHE C   7       7.644  25.777   6.096  1.00  0.00     0.043 H 
ATOM    100  CG  PHE C   7       8.359  25.854   3.950  1.00  0.00    -0.056 A 
ATOM    101  CD1 PHE C   7       8.505  25.263   2.686  1.00  0.00    -0.077 A 
ATOM    102  HD1 PHE C   7       8.334  24.110   2.455  1.00  0.00     0.084 H 
ATOM    103  CE1 PHE C   7       9.453  25.775   1.776  1.00  0.00    -0.082 A 
ATOM    104  HE1 PHE C   7       9.848  25.197   0.816  1.00  0.00     0.083 H 
ATOM    105  CZ  PHE C   7      10.153  26.950   2.084  1.00  0.00    -0.083 A 
ATOM    106  HZ  PHE C   7      10.947  27.409   1.330  1.00  0.00     0.083 H 
ATOM    107  CE2 PHE C   7      10.002  27.549   3.337  1.00  0.00    -0.082 A 
ATOM    108  HE2 PHE C   7      10.687  28.482   3.605  1.00  0.00     0.083 H 
ATOM    109  CD2 PHE C   7       9.045  27.047   4.239  1.00  0.00    -0.077 A 
ATOM    110  HD2 PHE C   7       8.875  27.785   5.155  1.00  0.00     0.084 H 
ATOM    111  N   TYR C   8       4.620  26.244   3.793  1.00  0.00    -0.346 N 
ATOM    112  H   TYR C   8       4.818  27.133   4.555  1.00  0.00     0.163 HD
ATOM    113  CA  TYR C   8       3.916  26.633   2.546  1.00  0.00     0.093 C 
ATOM    114  HA  TYR C   8       3.060  25.803   2.514  1.00  0.00     0.088 H 
ATOM    115  C   TYR C   8       4.909  26.665   1.367  1.00  0.00     0.241 C 
ATOM    116  O   TYR C   8       6.025  27.178   1.500  1.00  0.00    -0.271 OA
ATOM    117  CB  TYR C   8       3.288  28.020   2.694  1.00  0.00    -0.014 C 
ATOM    118  HB2 TYR C   8       4.038  28.890   2.359  1.00  0.00     0.043 H 
ATOM    119  HB3 TYR C   8       2.407  28.158   1.893  1.00  0.00     0.043 H 
ATOM    120  CG  TYR C   8       2.585  28.444   3.957  1.00  0.00    -0.056 A 
ATOM    121  CD1 TYR C   8       1.364  27.870   4.358  1.00  0.00    -0.074 A 
ATOM    122  HD1 TYR C   8       0.585  27.271   3.691  1.00  0.00     0.084 H 
ATOM    123  CE1 TYR C   8       0.847  28.169   5.629  1.00  0.00    -0.051 A 
ATOM    124  HE1 TYR C   8      -0.217  27.795   6.002  1.00  0.00     0.087 H 
ATOM    125  CZ  TYR C   8       1.553  29.047   6.480  1.00  0.00     0.065 A 
ATOM    126  OH  TYR C   8       1.128  29.256   7.757  1.00  0.00    -0.361 OA
ATOM    127  HH  TYR C   8       1.455  30.331   8.130  1.00  0.00     0.217 HD
ATOM    128  CE2 TYR C   8       2.705  29.713   6.026  1.00  0.00    -0.051 A 
ATOM    129  HE2 TYR C   8       3.307  30.518   6.660  1.00  0.00     0.087 H 
ATOM    130  CD2 TYR C   8       3.201  29.432   4.744  1.00  0.00    -0.074 A 
ATOM    131  HD2 TYR C   8       3.907  30.322   4.395  1.00  0.00     0.084 H 
ATOM    132  N   LYS C   9       4.546  26.132   0.205  1.00  0.00    -0.345 N 
ATOM    133  H   LYS C   9       3.413  25.803   0.066  1.00  0.00     0.163 HD
ATOM    134  CA  LYS C   9       5.446  26.214  -0.946  1.00  0.00     0.096 C 
ATOM    135  HA  LYS C   9       6.600  26.052  -0.705  1.00  0.00     0.089 H 
ATOM    136  C   LYS C   9       5.417  27.680  -1.532  1.00  0.00     0.196 C 
ATOM    137  O   LYS C   9       4.546  28.498  -1.140  1.00  0.00    -0.646 OA
ATOM    138  CB  LYS C   9       5.010  25.222  -2.159  1.00  0.00    -0.037 C 
ATOM    139  HB2 LYS C   9       3.832  25.083  -2.019  1.00  0.00     0.036 H 
ATOM    140  HB3 LYS C   9       5.124  25.922  -3.121  1.00  0.00     0.036 H 
ATOM    141  CG  LYS C   9       5.789  23.923  -2.414  1.00  0.00    -0.061 C 
ATOM    142  HG2 LYS C   9       6.947  24.149  -2.607  1.00  0.00     0.033 H 
ATOM    143  HG3 LYS C   9       5.761  23.205  -1.458  1.00  0.00     0.033 H 
ATOM    144  CD  LYS C   9       4.982  23.399  -3.604  1.00  0.00    -0.043 C 
ATOM    145  HD2 LYS C   9       3.927  22.994  -3.205  1.00  0.00     0.035 H 
ATOM    146  HD3 LYS C   9       4.662  24.097  -4.520  1.00  0.00     0.035 H 
ATOM    147  CE  LYS C   9       5.563  22.117  -4.152  1.00  0.00     0.080 C 
ATOM    148  HE2 LYS C   9       6.197  21.444  -3.393  1.00  0.00     0.075 H 
ATOM    149  HE3 LYS C   9       4.730  21.349  -4.545  1.00  0.00     0.075 H 
ATOM    150  NZ  LYS C   9       6.376  22.511  -5.309  1.00  0.00    -0.079 N 
ATOM    151  HZ1 LYS C   9       7.113  21.603  -5.579  1.00  0.00     0.274 HD
ATOM    152  HZ2 LYS C   9       5.753  22.639  -6.327  1.00  0.00     0.274 HD
ATOM    153  HZ3 LYS C   9       7.130  23.443  -5.294  1.00  0.00     0.274 HD
ATOM    154  OXT LYS C   9       6.228  28.084  -2.383  1.00  0.00    -0.646 OA
ENDROOT
TORSDOF 43
