REMARK  0 active torsions:
REMARK  status: ('A' for Active; 'I' for Inactive)
REMARK       I    between atoms: N_1  and  CA_5 
REMARK       I    between atoms: CA_5  and  C_7 
REMARK       I    between atoms: CA_5  and  CB_9 
REMARK       I    between atoms: CB_9  and  OG_12 
REMARK       I    between atoms: N_14  and  CA_16 
REMARK       I    between atoms: CA_16  and  CB_20 
REMARK       I    between atoms: CA_16  and  C_18 
REMARK       I    between atoms: C_18  and  N_28 
REMARK       I    between atoms: CB_20  and  OG1_26 
REMARK       I    between atoms: CB_20  and  CG2_22 
REMARK       I    between atoms: N_28  and  CA_30 
REMARK       I    between atoms: CA_30  and  CB_34 
REMARK       I    between atoms: CA_30  and  C_32 
REMARK       I    between atoms: C_32  and  N_48 
REMARK       I    between atoms: CB_34  and  CG_37 
REMARK       I    between atoms: N_48  and  CA_50 
REMARK       I    between atoms: CA_50  and  C_52 
REMARK       I    between atoms: CA_50  and  CB_54 
REMARK       I    between atoms: C_52  and  N_60 
REMARK       I    between atoms: CB_54  and  CG_57 
REMARK       I    between atoms: N_60  and  CA_62 
REMARK       I    between atoms: CA_62  and  CB_66 
REMARK       I    between atoms: CA_62  and  C_64 
REMARK       I    between atoms: C_64  and  N_75 
REMARK       I    between atoms: CB_66  and  CG_69 
REMARK       I    between atoms: CG_69  and  CD_72 
REMARK       I    between atoms: N_75  and  CA_77 
REMARK       I    between atoms: CA_77  and  C_79 
REMARK       I    between atoms: CA_77  and  CB_81 
REMARK       I    between atoms: C_79  and  N_91 
REMARK       I    between atoms: CB_81  and  CG1_83 
REMARK       I    between atoms: CB_81  and  CG2_87 
REMARK       I    between atoms: N_91  and  CA_93 
REMARK       I    between atoms: CA_93  and  CB_97 
REMARK       I    between atoms: CA_93  and  C_95 
REMARK       I    between atoms: C_95  and  N_111 
REMARK       I    between atoms: CB_97  and  CG_100 
REMARK       I    between atoms: N_111  and  CA_113 
REMARK       I    between atoms: CA_113  and  CB_117 
REMARK       I    between atoms: CA_113  and  C_115 
REMARK       I    between atoms: C_115  and  N_132 
REMARK       I    between atoms: CB_117  and  CG_120 
REMARK       I    between atoms: CZ_125  and  OH_126 
REMARK       I    between atoms: N_132  and  CA_134 
REMARK       I    between atoms: CA_134  and  C_136 
REMARK       I    between atoms: CA_134  and  CB_138 
REMARK       I    between atoms: CB_138  and  CG_141 
REMARK       I    between atoms: CG_141  and  CD_144 
REMARK       I    between atoms: CD_144  and  CE_147 
REMARK       I    between atoms: CE_147  and  NZ_150 
ROOT
ATOM      1  N   SER C   1       3.569  10.245  15.174  1.00  0.00    -0.068 N 
ATOM      2  H   SER C   1       4.723  10.018  14.933  1.00  0.00     0.275 HD
ATOM      3  H2  SER C   1       3.259   9.360  15.925  1.00  0.00     0.275 HD
ATOM      4  H3  SER C   1       2.976   9.944  14.170  1.00  0.00     0.275 HD
ATOM      5  CA  SER C   1       3.063  11.615  15.582  1.00  0.00     0.185 C 
ATOM      6  HA  SER C   1       1.887  11.555  15.761  1.00  0.00     0.095 H 
ATOM      7  C   SER C   1       3.501  12.536  14.439  1.00  0.00     0.383 A 
ATOM      8  O   SER C   1       4.647  12.524  13.986  1.00  0.00    -0.147 OA
ATOM      9  CB  SER C   1       3.799  12.126  16.857  1.00  0.00     0.048 C 
ATOM     10  HB2 SER C   1       4.950  12.376  16.659  1.00  0.00     0.077 H 
ATOM     11  HB3 SER C   1       3.338  13.000  17.526  1.00  0.00     0.077 H 
ATOM     12  OG  SER C   1       3.749  11.222  17.947  1.00  0.00    -0.399 OA
ATOM     13  HG  SER C   1       4.642  11.432  18.699  1.00  0.00     0.209 HD
ATOM     14  N   THR C   2       3.540  13.486  13.969  1.00  0.00     0.104 N 
ATOM     15  H   THR C   2       4.448  14.263  14.106  1.00  0.00     0.323 HD
ATOM     16  CA  THR C   2       2.458  14.475  13.828  1.00  0.00     0.235 C 
ATOM     17  HA  THR C   2       1.672  13.756  13.285  1.00  0.00     0.108 H 
ATOM     18  C   THR C   2       2.798  15.518  12.785  1.00  0.00     0.255 C 
ATOM     19  O   THR C   2       3.975  15.776  12.516  1.00  0.00    -0.271 OA
ATOM     20  CB  THR C   2       2.213  15.197  15.154  1.00  0.00     0.071 C 
ATOM     21  HB  THR C   2       1.033  14.969  15.081  1.00  0.00     0.086 H 
ATOM     22  CG2 THR C   2       1.994  16.709  15.226  1.00  0.00    -0.050 C 
ATOM     23 1HG2 THR C   2       1.846  17.354  14.239  1.00  0.00     0.031 H 
ATOM     24 2HG2 THR C   2       2.893  16.980  15.970  1.00  0.00     0.031 H 
ATOM     25 3HG2 THR C   2       1.014  16.977  15.865  1.00  0.00     0.031 H 
ATOM     26  OG1 THR C   2       2.232  14.497  16.389  1.00  0.00    -0.393 OA
ATOM     27  HG1 THR C   2       1.666  15.097  17.246  1.00  0.00     0.210 HD
ATOM     28  N   PHE C   3       1.774  16.126  12.187  1.00  0.00    -0.346 N 
ATOM     29  H   PHE C   3       0.643  15.822  12.400  1.00  0.00     0.163 HD
ATOM     30  CA  PHE C   3       1.980  17.160  11.180  1.00  0.00     0.093 C 
ATOM     31  HA  PHE C   3       3.048  17.246  10.655  1.00  0.00     0.088 H 
ATOM     32  C   PHE C   3       1.612  18.531  11.733  1.00  0.00     0.241 C 
ATOM     33  O   PHE C   3       0.637  19.145  11.289  1.00  0.00    -0.271 OA
ATOM     34  CB  PHE C   3       1.114  16.891   9.948  1.00  0.00    -0.014 C 
ATOM     35  HB2 PHE C   3       1.742  16.052   9.368  1.00  0.00     0.043 H 
ATOM     36  HB3 PHE C   3       0.126  16.285  10.252  1.00  0.00     0.043 H 
ATOM     37  CG  PHE C   3       0.409  17.560   8.790  1.00  0.00    -0.056 A 
ATOM     38  CD1 PHE C   3      -0.780  18.258   9.030  1.00  0.00    -0.077 A 
ATOM     39  HD1 PHE C   3      -1.428  18.489  10.000  1.00  0.00     0.084 H 
ATOM     40  CE1 PHE C   3      -1.599  18.624   7.945  1.00  0.00    -0.082 A 
ATOM     41  HE1 PHE C   3      -2.735  18.962   8.040  1.00  0.00     0.083 H 
ATOM     42  CZ  PHE C   3      -1.110  18.475   6.641  1.00  0.00    -0.083 A 
ATOM     43  HZ  PHE C   3      -1.683  18.978   5.730  1.00  0.00     0.083 H 
ATOM     44  CE2 PHE C   3       0.083  17.786   6.399  1.00  0.00    -0.082 A 
ATOM     45  HE2 PHE C   3       0.324  17.448   5.285  1.00  0.00     0.083 H 
ATOM     46  CD2 PHE C   3       0.911  17.431   7.474  1.00  0.00    -0.077 A 
ATOM     47  HD2 PHE C   3       2.027  17.231   7.119  1.00  0.00     0.084 H 
ATOM     48  N   ASP C   4       2.387  19.017  12.702  1.00  0.00    -0.345 N 
ATOM     49  H   ASP C   4       3.407  18.413  12.739  1.00  0.00     0.163 HD
ATOM     50  CA  ASP C   4       2.143  20.326  13.293  1.00  0.00     0.098 C 
ATOM     51  HA  ASP C   4       1.064  20.807  13.127  1.00  0.00     0.088 H 
ATOM     52  C   ASP C   4       3.057  21.376  12.674  1.00  0.00     0.241 C 
ATOM     53  O   ASP C   4       2.929  22.570  12.965  1.00  0.00    -0.271 OA
ATOM     54  CB  ASP C   4       2.404  20.292  14.801  1.00  0.00     0.043 C 
ATOM     55  HB2 ASP C   4       1.386  20.088  15.395  1.00  0.00     0.052 H 
ATOM     56  HB3 ASP C   4       2.725  21.358  15.241  1.00  0.00     0.052 H 
ATOM     57  CG  ASP C   4       3.514  19.457  15.413  1.00  0.00     0.175 C 
ATOM     58  OD1 ASP C   4       4.345  19.078  14.559  1.00  0.00    -0.648 OA
ATOM     59  OD2 ASP C   4       3.669  19.469  16.659  1.00  0.00    -0.648 OA
ATOM     60  N   GLU C   5       3.981  20.940  11.819  1.00  0.00    -0.346 N 
ATOM     61  H   GLU C   5       4.587  19.924  11.906  1.00  0.00     0.163 HD
ATOM     62  CA  GLU C   5       4.898  21.855  11.150  1.00  0.00     0.090 C 
ATOM     63  HA  GLU C   5       5.278  22.588  12.012  1.00  0.00     0.087 H 
ATOM     64  C   GLU C   5       4.218  22.530   9.966  1.00  0.00     0.241 C 
ATOM     65  O   GLU C   5       3.246  22.002   9.416  1.00  0.00    -0.271 OA
ATOM     66  CB  GLU C   5       6.126  21.103  10.633  1.00  0.00    -0.029 C 
ATOM     67  HB2 GLU C   5       5.866  20.250   9.840  1.00  0.00     0.037 H 
ATOM     68  HB3 GLU C   5       6.732  20.591  11.528  1.00  0.00     0.037 H 
ATOM     69  CG  GLU C   5       7.246  21.934   9.992  1.00  0.00     0.018 C 
ATOM     70  HG2 GLU C   5       7.778  22.699  10.739  1.00  0.00     0.049 H 
ATOM     71  HG3 GLU C   5       7.041  22.466   8.949  1.00  0.00     0.049 H 
ATOM     72  CD  GLU C   5       8.435  21.084   9.539  1.00  0.00     0.172 C 
ATOM     73  OE1 GLU C   5       8.557  20.862   8.313  1.00  0.00    -0.648 OA
ATOM     74  OE2 GLU C   5       9.328  20.869  10.392  1.00  0.00    -0.648 OA
ATOM     75  N   VAL C   6       4.722  23.697   9.568  1.00  0.00    -0.346 N 
ATOM     76  H   VAL C   6       5.506  24.287  10.240  1.00  0.00     0.163 HD
ATOM     77  CA  VAL C   6       4.166  24.426   8.433  1.00  0.00     0.092 C 
ATOM     78  HA  VAL C   6       3.288  23.813   7.909  1.00  0.00     0.088 H 
ATOM     79  C   VAL C   6       5.269  24.852   7.473  1.00  0.00     0.241 C 
ATOM     80  O   VAL C   6       6.251  25.479   7.884  1.00  0.00    -0.271 OA
ATOM     81  CB  VAL C   6       3.432  25.682   8.908  1.00  0.00    -0.033 C 
ATOM     82  HB  VAL C   6       4.336  26.191   9.508  1.00  0.00     0.042 H 
ATOM     83  CG1 VAL C   6       3.348  26.900   7.988  1.00  0.00    -0.071 C 
ATOM     84 1HG1 VAL C   6       2.312  27.378   8.346  1.00  0.00     0.028 H 
ATOM     85 2HG1 VAL C   6       4.171  27.770   8.011  1.00  0.00     0.028 H 
ATOM     86 3HG1 VAL C   6       3.137  26.508   6.880  1.00  0.00     0.028 H 
ATOM     87  CG2 VAL C   6       2.630  25.701  10.212  1.00  0.00    -0.071 C 
ATOM     88 1HG2 VAL C   6       2.912  25.138  11.231  1.00  0.00     0.028 H 
ATOM     89 2HG2 VAL C   6       1.562  25.245   9.910  1.00  0.00     0.028 H 
ATOM     90 3HG2 VAL C   6       2.364  26.761  10.712  1.00  0.00     0.028 H 
ATOM     91  N   PHE C   7       5.110  24.515   6.195  1.00  0.00    -0.346 N 
ATOM     92  H   PHE C   7       4.292  23.753   5.787  1.00  0.00     0.163 HD
ATOM     93  CA  PHE C   7       6.088  24.883   5.178  1.00  0.00     0.093 C 
ATOM     94  HA  PHE C   7       6.787  25.835   5.354  1.00  0.00     0.088 H 
ATOM     95  C   PHE C   7       5.403  25.167   3.848  1.00  0.00     0.241 C 
ATOM     96  O   PHE C   7       5.579  24.421   2.879  1.00  0.00    -0.271 OA
ATOM     97  CB  PHE C   7       7.096  23.751   4.967  1.00  0.00    -0.014 C 
ATOM     98  HB2 PHE C   7       6.558  22.720   5.244  1.00  0.00     0.043 H 
ATOM     99  HB3 PHE C   7       7.893  23.933   5.841  1.00  0.00     0.043 H 
ATOM    100  CG  PHE C   7       8.028  23.133   3.948  1.00  0.00    -0.056 A 
ATOM    101  CD1 PHE C   7       7.487  22.359   2.914  1.00  0.00    -0.077 A 
ATOM    102  HD1 PHE C   7       6.381  21.974   2.718  1.00  0.00     0.084 H 
ATOM    103  CE1 PHE C   7       8.334  21.531   2.152  1.00  0.00    -0.082 A 
ATOM    104  HE1 PHE C   7       7.963  20.619   1.486  1.00  0.00     0.083 H 
ATOM    105  CZ  PHE C   7       9.721  21.660   2.292  1.00  0.00    -0.083 A 
ATOM    106  HZ  PHE C   7      10.459  21.139   1.520  1.00  0.00     0.083 H 
ATOM    107  CE2 PHE C   7      10.266  22.442   3.316  1.00  0.00    -0.082 A 
ATOM    108  HE2 PHE C   7      11.413  22.295   3.584  1.00  0.00     0.083 H 
ATOM    109  CD2 PHE C   7       9.429  23.282   4.069  1.00  0.00    -0.077 A 
ATOM    110  HD2 PHE C   7      10.035  24.225   4.465  1.00  0.00     0.084 H 
ATOM    111  N   TYR C   8       4.620  26.244   3.793  1.00  0.00    -0.346 N 
ATOM    112  H   TYR C   8       5.002  27.165   4.440  1.00  0.00     0.163 HD
ATOM    113  CA  TYR C   8       3.916  26.633   2.546  1.00  0.00     0.093 C 
ATOM    114  HA  TYR C   8       3.054  25.812   2.507  1.00  0.00     0.088 H 
ATOM    115  C   TYR C   8       4.909  26.665   1.367  1.00  0.00     0.241 C 
ATOM    116  O   TYR C   8       6.025  27.178   1.500  1.00  0.00    -0.271 OA
ATOM    117  CB  TYR C   8       3.288  28.020   2.694  1.00  0.00    -0.014 C 
ATOM    118  HB2 TYR C   8       4.030  28.890   2.347  1.00  0.00     0.043 H 
ATOM    119  HB3 TYR C   8       2.404  28.121   1.893  1.00  0.00     0.043 H 
ATOM    120  CG  TYR C   8       2.582  28.446   3.953  1.00  0.00    -0.056 A 
ATOM    121  CD1 TYR C   8       1.362  27.875   4.346  1.00  0.00    -0.074 A 
ATOM    122  HD1 TYR C   8       0.568  27.308   3.666  1.00  0.00     0.084 H 
ATOM    123  CE1 TYR C   8       0.836  28.187   5.619  1.00  0.00    -0.051 A 
ATOM    124  HE1 TYR C   8      -0.301  27.964   5.880  1.00  0.00     0.087 H 
ATOM    125  CZ  TYR C   8       1.542  29.066   6.454  1.00  0.00     0.065 A 
ATOM    126  OH  TYR C   8       1.107  29.287   7.740  1.00  0.00    -0.361 OA
ATOM    127  HH  TYR C   8       1.294  30.419   8.048  1.00  0.00     0.217 HD
ATOM    128  CE2 TYR C   8       2.693  29.731   6.012  1.00  0.00    -0.051 A 
ATOM    129  HE2 TYR C   8       3.079  30.768   6.447  1.00  0.00     0.087 H 
ATOM    130  CD2 TYR C   8       3.200  29.438   4.734  1.00  0.00    -0.074 A 
ATOM    131  HD2 TYR C   8       3.953  30.277   4.355  1.00  0.00     0.084 H 
ATOM    132  N   LYS C   9       4.546  26.132   0.205  1.00  0.00    -0.345 N 
ATOM    133  H   LYS C   9       3.429  25.754   0.058  1.00  0.00     0.163 HD
ATOM    134  CA  LYS C   9       5.446  26.214  -0.946  1.00  0.00     0.096 C 
ATOM    135  HA  LYS C   9       6.593  26.048  -0.672  1.00  0.00     0.089 H 
ATOM    136  C   LYS C   9       5.417  27.680  -1.532  1.00  0.00     0.196 C 
ATOM    137  O   LYS C   9       4.546  28.498  -1.140  1.00  0.00    -0.646 OA
ATOM    138  CB  LYS C   9       5.010  25.222  -2.159  1.00  0.00    -0.037 C 
ATOM    139  HB2 LYS C   9       5.191  25.914  -3.116  1.00  0.00     0.036 H 
ATOM    140  HB3 LYS C   9       3.824  25.123  -2.084  1.00  0.00     0.036 H 
ATOM    141  CG  LYS C   9       5.791  23.919  -2.414  1.00  0.00    -0.061 C 
ATOM    142  HG2 LYS C   9       6.948  24.148  -2.608  1.00  0.00     0.033 H 
ATOM    143  HG3 LYS C   9       5.762  23.205  -1.456  1.00  0.00     0.033 H 
ATOM    144  CD  LYS C   9       4.981  23.401  -3.605  1.00  0.00    -0.043 C 
ATOM    145  HD2 LYS C   9       4.641  24.108  -4.508  1.00  0.00     0.035 H 
ATOM    146  HD3 LYS C   9       3.932  22.992  -3.189  1.00  0.00     0.035 H 
ATOM    147  CE  LYS C   9       5.561  22.121  -4.149  1.00  0.00     0.080 C 
ATOM    148  HE2 LYS C   9       6.174  21.428  -3.390  1.00  0.00     0.075 H 
ATOM    149  HE3 LYS C   9       4.727  21.351  -4.534  1.00  0.00     0.075 H 
ATOM    150  NZ  LYS C   9       6.375  22.515  -5.308  1.00  0.00    -0.079 N 
ATOM    151  HZ1 LYS C   9       7.175  21.641  -5.497  1.00  0.00     0.274 HD
ATOM    152  HZ2 LYS C   9       5.760  22.538  -6.337  1.00  0.00     0.274 HD
ATOM    153  HZ3 LYS C   9       7.082  23.481  -5.357  1.00  0.00     0.274 HD
ATOM    154  OXT LYS C   9       6.243  28.067  -2.383  1.00  0.00    -0.646 OA
ENDROOT
TORSDOF 43
