REMARK  0 active torsions:
REMARK  status: ('A' for Active; 'I' for Inactive)
REMARK       I    between atoms: N_1  and  CA_5 
REMARK       I    between atoms: CA_5  and  C_7 
REMARK       I    between atoms: CA_5  and  CB_9 
REMARK       I    between atoms: C_7  and  N_14 
REMARK       I    between atoms: CB_9  and  OG_12 
REMARK       I    between atoms: N_14  and  CA_16 
REMARK       I    between atoms: CA_16  and  CB_20 
REMARK       I    between atoms: CA_16  and  C_18 
REMARK       I    between atoms: C_18  and  N_28 
REMARK       I    between atoms: CB_20  and  CG2_22 
REMARK       I    between atoms: CB_20  and  OG1_26 
REMARK       I    between atoms: N_28  and  CA_30 
REMARK       I    between atoms: CA_30  and  CB_34 
REMARK       I    between atoms: CA_30  and  C_32 
REMARK       I    between atoms: C_32  and  N_48 
REMARK       I    between atoms: CB_34  and  CG_37 
REMARK       I    between atoms: N_48  and  CA_50 
REMARK       I    between atoms: CA_50  and  C_52 
REMARK       I    between atoms: CA_50  and  CB_54 
REMARK       I    between atoms: C_52  and  N_60 
REMARK       I    between atoms: CB_54  and  CG_57 
REMARK       I    between atoms: N_60  and  CA_62 
REMARK       I    between atoms: CA_77  and  CB_81 
REMARK       I    between atoms: CB_81  and  CG1_83 
REMARK       I    between atoms: CB_81  and  CG2_87 
REMARK       I    between atoms: CA_93  and  CB_97 
REMARK       I    between atoms: CB_97  and  CG_100 
REMARK       I    between atoms: CA_113  and  C_115 
REMARK       I    between atoms: C_115  and  N_132 
REMARK       I    between atoms: CZ_125  and  OH_126 
REMARK       I    between atoms: N_132  and  CA_134 
REMARK       I    between atoms: CA_134  and  CB_138 
REMARK       I    between atoms: CA_134  and  C_136 
REMARK       I    between atoms: CB_138  and  CG_141 
REMARK       I    between atoms: CG_141  and  CD_144 
REMARK       I    between atoms: CD_144  and  CE_147 
REMARK       I    between atoms: CE_147  and  NZ_150 
ROOT
ATOM      1  N   SER C   1       3.569  10.245  15.174  1.00  0.00    -0.064 N 
ATOM      2  H   SER C   1       2.903   9.403  15.708  1.00  0.00     0.275 HD
ATOM      3  H2  SER C   1       3.418   9.977  14.015  1.00  0.00     0.275 HD
ATOM      4  H3  SER C   1       4.701   9.940  15.411  1.00  0.00     0.275 HD
ATOM      5  CA  SER C   1       3.063  11.615  15.582  1.00  0.00     0.195 C 
ATOM      6  HA  SER C   1       1.908  11.493  15.856  1.00  0.00     0.102 H 
ATOM      7  C   SER C   1       3.501  12.536  14.439  1.00  0.00     0.251 C 
ATOM      8  O   SER C   1       4.647  12.524  13.986  1.00  0.00    -0.271 OA
ATOM      9  CB  SER C   1       3.799  12.126  16.857  1.00  0.00     0.051 C 
ATOM     10  HB2 SER C   1       4.518  12.744  17.605  1.00  0.00     0.077 H 
ATOM     11  HB3 SER C   1       3.455  13.215  16.486  1.00  0.00     0.077 H 
ATOM     12  OG  SER C   1       3.753  11.236  17.957  1.00  0.00    -0.398 OA
ATOM     13  HG  SER C   1       4.829  11.109  18.462  1.00  0.00     0.209 HD
ATOM     14  N   THR C   2       2.645  13.462  14.123  1.00  0.00    -0.344 N 
ATOM     15  H   THR C   2       1.668  13.717  14.753  1.00  0.00     0.163 HD
ATOM     16  CA  THR C   2       2.846  14.378  12.987  1.00  0.00     0.113 C 
ATOM     17  HA  THR C   2       3.299  13.635  12.170  1.00  0.00     0.091 H 
ATOM     18  C   THR C   2       3.766  15.521  13.358  1.00  0.00     0.243 C 
ATOM     19  O   THR C   2       3.873  15.884  14.534  1.00  0.00    -0.271 OA
ATOM     20  CB  THR C   2       1.511  14.974  12.535  1.00  0.00     0.060 C 
ATOM     21  HB  THR C   2       1.601  14.697  11.370  1.00  0.00     0.086 H 
ATOM     22  CG2 THR C   2       1.341  16.467  12.238  1.00  0.00    -0.050 C 
ATOM     23 1HG2 THR C   2       1.341  17.082  13.266  1.00  0.00     0.031 H 
ATOM     24 2HG2 THR C   2       0.213  16.626  11.855  1.00  0.00     0.031 H 
ATOM     25 3HG2 THR C   2       1.874  17.084  11.364  1.00  0.00     0.031 H 
ATOM     26  OG1 THR C   2       0.349  14.160  12.515  1.00  0.00    -0.393 OA
ATOM     27  HG1 THR C   2      -0.481  14.581  13.249  1.00  0.00     0.210 HD
ATOM     28  N   PHE C   3       4.439  16.099  12.364  1.00  0.00    -0.346 N 
ATOM     29  H   PHE C   3       4.402  15.658  11.259  1.00  0.00     0.163 HD
ATOM     30  CA  PHE C   3       5.339  17.221  12.598  1.00  0.00     0.088 C 
ATOM     31  HA  PHE C   3       5.616  17.343  13.752  1.00  0.00     0.087 H 
ATOM     32  C   PHE C   3       4.747  18.511  12.046  1.00  0.00     0.221 C 
ATOM     33  O   PHE C   3       4.218  18.532  10.930  1.00  0.00    -0.278 OA
ATOM     34  CB  PHE C   3       6.687  16.980  11.916  1.00  0.00    -0.014 C 
ATOM     35  HB2 PHE C   3       7.433  16.705  12.813  1.00  0.00     0.043 H 
ATOM     36  HB3 PHE C   3       6.734  15.957  11.296  1.00  0.00     0.043 H 
ATOM     37  CG  PHE C   3       7.548  17.776  10.963  1.00  0.00    -0.056 A 
ATOM     38  CD1 PHE C   3       7.093  18.108   9.671  1.00  0.00    -0.077 A 
ATOM     39  HD1 PHE C   3       6.261  17.505   9.073  1.00  0.00     0.084 H 
ATOM     40  CE1 PHE C   3       7.975  18.674   8.744  1.00  0.00    -0.082 A 
ATOM     41  HE1 PHE C   3       7.818  18.595   7.568  1.00  0.00     0.083 H 
ATOM     42  CZ  PHE C   3       9.283  19.010   9.133  1.00  0.00    -0.083 A 
ATOM     43  HZ  PHE C   3      10.067  19.446   8.353  1.00  0.00     0.083 H 
ATOM     44  CE2 PHE C   3       9.740  18.686  10.423  1.00  0.00    -0.082 A 
ATOM     45  HE2 PHE C   3      10.902  18.815  10.638  1.00  0.00     0.083 H 
ATOM     46  CD2 PHE C   3       8.856  18.136  11.348  1.00  0.00    -0.077 A 
ATOM     47  HD2 PHE C   3       9.371  18.164  12.419  1.00  0.00     0.084 H 
ATOM     48  N   ASP C   4       4.833  19.592  12.820  1.00  0.00    -0.247 NA
ATOM     49  H   ASP C   4       4.261  19.331  13.834  1.00  0.00     0.131 HD
ATOM     50  CA  ASP C   4       4.319  20.886  12.389  1.00  0.00     0.085 C 
ATOM     51  HA  ASP C   4       3.160  20.775  12.122  1.00  0.00     0.080 H 
ATOM     52  C   ASP C   4       5.107  21.407  11.193  1.00  0.00     0.236 C 
ATOM     53  O   ASP C   4       6.126  20.824  10.810  1.00  0.00    -0.272 OA
ATOM     54  CB  ASP C   4       4.428  21.912  13.519  1.00  0.00     0.039 C 
ATOM     55  HB2 ASP C   4       3.468  21.867  14.232  1.00  0.00     0.052 H 
ATOM     56  HB3 ASP C   4       4.553  23.086  13.320  1.00  0.00     0.052 H 
ATOM     57  CG  ASP C   4       5.544  21.675  14.538  1.00  0.00     0.174 C 
ATOM     58  OD1 ASP C   4       6.307  20.709  14.337  1.00  0.00    -0.648 OA
ATOM     59  OD2 ASP C   4       5.717  22.546  15.449  1.00  0.00    -0.648 OA
ATOM     60  N   GLU C   5       4.641  22.505  10.599  1.00  0.00    -0.346 N 
ATOM     61  H   GLU C   5       3.652  23.023  11.010  1.00  0.00     0.163 HD
ATOM     62  CA  GLU C   5       5.322  23.106   9.459  1.00  0.00     0.090 C 
ATOM     63  HA  GLU C   5       6.422  22.645   9.455  1.00  0.00     0.087 H 
ATOM     64  C   GLU C   5       5.361  24.623   9.592  1.00  0.00     0.241 C 
ATOM     65  O   GLU C   5       4.314  25.278   9.616  1.00  0.00    -0.271 OA
ATOM     66  CB  GLU C   5       4.599  22.757   8.156  1.00  0.00    -0.029 C 
ATOM     67  HB2 GLU C   5       4.507  21.552   8.138  1.00  0.00     0.037 H 
ATOM     68  HB3 GLU C   5       3.521  22.673   8.670  1.00  0.00     0.037 H 
ATOM     69  CG  GLU C   5       5.482  22.805   6.891  1.00  0.00     0.018 C 
ATOM     70  HG2 GLU C   5       6.346  23.628   6.913  1.00  0.00     0.048 H 
ATOM     71  HG3 GLU C   5       6.269  21.891   6.896  1.00  0.00     0.048 H 
ATOM     72  CD  GLU C   5       4.880  22.205   5.615  1.00  0.00     0.259 C 
ATOM     73  OE1 GLU C   5       4.267  22.944   4.809  1.00  0.00    -0.311 OA
ATOM     74  OE2 GLU C   5       5.231  21.053   5.302  1.00  0.00    -0.265 OA
ATOM     75  N   VAL C   6       6.564  25.188   9.680  1.00  0.00    -0.346 N 
ATOM     76  H   VAL C   6       7.534  24.512   9.806  1.00  0.00     0.163 HD
ATOM     77  CA  VAL C   6       6.726  26.634   9.792  1.00  0.00     0.092 C 
ATOM     78  HA  VAL C   6       5.959  27.087  10.587  1.00  0.00     0.088 H 
ATOM     79  C   VAL C   6       6.367  27.319   8.480  1.00  0.00     0.241 C 
ATOM     80  O   VAL C   6       5.671  28.339   8.475  1.00  0.00    -0.271 OA
ATOM     81  CB  VAL C   6       8.174  26.988  10.137  1.00  0.00    -0.033 C 
ATOM     82  HB  VAL C   6       9.061  26.457   9.537  1.00  0.00     0.042 H 
ATOM     83  CG1 VAL C   6       8.497  28.477   9.999  1.00  0.00    -0.071 C 
ATOM     84 1HG1 VAL C   6       8.237  29.150  10.958  1.00  0.00     0.028 H 
ATOM     85 2HG1 VAL C   6       9.672  28.664   9.846  1.00  0.00     0.028 H 
ATOM     86 3HG1 VAL C   6       8.074  29.195   9.138  1.00  0.00     0.028 H 
ATOM     87  CG2 VAL C   6       8.460  26.598  11.583  1.00  0.00    -0.071 C 
ATOM     88 1HG2 VAL C   6       9.488  27.054  12.009  1.00  0.00     0.028 H 
ATOM     89 2HG2 VAL C   6       8.684  25.445  11.823  1.00  0.00     0.028 H 
ATOM     90 3HG2 VAL C   6       7.685  26.917  12.437  1.00  0.00     0.028 H 
ATOM     91  N   PHE C   7       6.840  26.761   7.366  1.00  0.00    -0.346 N 
ATOM     92  H   PHE C   7       7.729  25.973   7.323  1.00  0.00     0.163 HD
ATOM     93  CA  PHE C   7       6.548  27.314   6.049  1.00  0.00     0.093 C 
ATOM     94  HA  PHE C   7       5.698  28.148   6.141  1.00  0.00     0.088 H 
ATOM     95  C   PHE C   7       5.995  26.238   5.123  1.00  0.00     0.241 C 
ATOM     96  O   PHE C   7       6.216  25.044   5.346  1.00  0.00    -0.271 OA
ATOM     97  CB  PHE C   7       7.817  27.887   5.414  1.00  0.00    -0.014 C 
ATOM     98  HB2 PHE C   7       7.622  29.069   5.401  1.00  0.00     0.043 H 
ATOM     99  HB3 PHE C   7       8.838  27.836   6.036  1.00  0.00     0.043 H 
ATOM    100  CG  PHE C   7       8.445  27.550   4.072  1.00  0.00    -0.056 A 
ATOM    101  CD1 PHE C   7       8.850  26.242   3.741  1.00  0.00    -0.077 A 
ATOM    102  HD1 PHE C   7       9.113  25.355   4.487  1.00  0.00     0.084 H 
ATOM    103  CE1 PHE C   7       9.569  25.991   2.564  1.00  0.00    -0.082 A 
ATOM    104  HE1 PHE C   7      10.107  24.963   2.303  1.00  0.00     0.083 H 
ATOM    105  CZ  PHE C   7       9.829  27.039   1.665  1.00  0.00    -0.083 A 
ATOM    106  HZ  PHE C   7      10.476  26.849   0.687  1.00  0.00     0.083 H 
ATOM    107  CE2 PHE C   7       9.412  28.342   1.976  1.00  0.00    -0.082 A 
ATOM    108  HE2 PHE C   7       9.782  29.207   1.249  1.00  0.00     0.083 H 
ATOM    109  CD2 PHE C   7       8.675  28.581   3.141  1.00  0.00    -0.077 A 
ATOM    110  HD2 PHE C   7       8.437  29.744   3.207  1.00  0.00     0.084 H 
ATOM    111  N   TYR C   8       5.274  26.654   4.083  1.00  0.00    -0.346 N 
ATOM    112  H   TYR C   8       4.966  27.790   3.910  1.00  0.00     0.163 HD
ATOM    113  CA  TYR C   8       4.699  25.700   3.102  1.00  0.00     0.093 C 
ATOM    114  HA  TYR C   8       5.452  24.830   2.790  1.00  0.00     0.088 H 
ATOM    115  C   TYR C   8       4.634  26.352   1.707  1.00  0.00     0.241 C 
ATOM    116  O   TYR C   8       4.237  27.514   1.576  1.00  0.00    -0.271 OA
ATOM    117  CB  TYR C   8       3.285  25.289   3.516  1.00  0.00    -0.015 C 
ATOM    118  HB2 TYR C   8       3.003  24.300   2.904  1.00  0.00     0.043 H 
ATOM    119  HB3 TYR C   8       2.461  26.052   3.105  1.00  0.00     0.043 H 
ATOM    120  CG  TYR C   8       2.854  25.042   4.929  1.00  0.00    -0.048 A 
ATOM    121  CD1 TYR C   8       3.292  23.892   5.599  1.00  0.00     0.080 A 
ATOM    122  HD1 TYR C   8       4.211  24.583   5.932  1.00  0.00     0.092 H 
ATOM    123  CE1 TYR C   8       3.052  23.749   6.973  1.00  0.00     0.033 A 
ATOM    124  HE1 TYR C   8       2.213  22.902   6.877  1.00  0.00     0.056 H 
ATOM    125  CZ  TYR C   8       2.367  24.760   7.667  1.00  0.00     0.051 A 
ATOM    126  OH  TYR C   8       2.227  24.693   9.013  1.00  0.00    -0.364 OA
ATOM    127  HH  TYR C   8       1.334  25.384   9.379  1.00  0.00     0.217 HD
ATOM    128  CE2 TYR C   8       1.823  25.856   6.969  1.00  0.00    -0.054 A 
ATOM    129  HE2 TYR C   8       0.979  26.588   7.377  1.00  0.00     0.087 H 
ATOM    130  CD2 TYR C   8       2.031  25.969   5.585  1.00  0.00    -0.076 A 
ATOM    131  HD2 TYR C   8       1.312  26.784   5.099  1.00  0.00     0.084 H 
ATOM    132  N   LYS C   9       4.546  26.132   0.205  1.00  0.00    -0.345 N 
ATOM    133  H   LYS C   9       3.390  25.885   0.070  1.00  0.00     0.163 HD
ATOM    134  CA  LYS C   9       5.446  26.214  -0.946  1.00  0.00     0.096 C 
ATOM    135  HA  LYS C   9       6.562  26.044  -0.569  1.00  0.00     0.089 H 
ATOM    136  C   LYS C   9       5.417  27.680  -1.532  1.00  0.00     0.196 C 
ATOM    137  O   LYS C   9       4.546  28.498  -1.140  1.00  0.00    -0.646 OA
ATOM    138  CB  LYS C   9       5.010  25.222  -2.159  1.00  0.00    -0.037 C 
ATOM    139  HB2 LYS C   9       3.821  25.151  -2.080  1.00  0.00     0.036 H 
ATOM    140  HB3 LYS C   9       5.203  25.907  -3.119  1.00  0.00     0.036 H 
ATOM    141  CG  LYS C   9       5.778  23.923  -2.409  1.00  0.00    -0.061 C 
ATOM    142  HG2 LYS C   9       6.931  24.177  -2.588  1.00  0.00     0.033 H 
ATOM    143  HG3 LYS C   9       5.750  23.171  -1.480  1.00  0.00     0.033 H 
ATOM    144  CD  LYS C   9       4.971  23.418  -3.596  1.00  0.00    -0.043 C 
ATOM    145  HD2 LYS C   9       3.903  23.018  -3.209  1.00  0.00     0.035 H 
ATOM    146  HD3 LYS C   9       4.612  24.093  -4.516  1.00  0.00     0.035 H 
ATOM    147  CE  LYS C   9       5.565  22.132  -4.141  1.00  0.00     0.080 C 
ATOM    148  HE2 LYS C   9       6.194  21.402  -3.431  1.00  0.00     0.075 H 
ATOM    149  HE3 LYS C   9       4.680  21.378  -4.428  1.00  0.00     0.075 H 
ATOM    150  NZ  LYS C   9       6.366  22.528  -5.295  1.00  0.00    -0.079 N 
ATOM    151  HZ1 LYS C   9       6.688  23.625  -5.654  1.00  0.00     0.274 HD
ATOM    152  HZ2 LYS C   9       7.442  21.999  -5.243  1.00  0.00     0.274 HD
ATOM    153  HZ3 LYS C   9       5.848  22.064  -6.274  1.00  0.00     0.274 HD
ATOM    154  OXT LYS C   9       6.318  27.983  -2.406  1.00  0.00    -0.646 OA
ENDROOT
TORSDOF 32
