REMARK  0 active torsions:
REMARK  status: ('A' for Active; 'I' for Inactive)
REMARK       I    between atoms: N_1  and  CA_5 
REMARK       I    between atoms: CA_5  and  C_7 
REMARK       I    between atoms: CA_5  and  CB_9 
REMARK       I    between atoms: C_7  and  N_14 
REMARK       I    between atoms: CB_9  and  OG_12 
REMARK       I    between atoms: N_14  and  CA_16 
REMARK       I    between atoms: CA_16  and  CB_20 
REMARK       I    between atoms: CA_16  and  C_18 
REMARK       I    between atoms: C_18  and  N_28 
REMARK       I    between atoms: CB_20  and  OG1_26 
REMARK       I    between atoms: CB_20  and  CG2_22 
REMARK       I    between atoms: N_28  and  CA_30 
REMARK       I    between atoms: CA_30  and  CB_34 
REMARK       I    between atoms: CA_30  and  C_32 
REMARK       I    between atoms: C_32  and  N_48 
REMARK       I    between atoms: CB_34  and  CG_37 
REMARK       I    between atoms: N_48  and  CA_50 
REMARK       I    between atoms: CA_50  and  CB_54 
REMARK       I    between atoms: CA_50  and  C_52 
REMARK       I    between atoms: C_52  and  N_60 
REMARK       I    between atoms: CB_54  and  CG_57 
REMARK       I    between atoms: N_60  and  CA_62 
REMARK       I    between atoms: CA_62  and  CB_66 
REMARK       I    between atoms: CA_62  and  C_64 
REMARK       I    between atoms: C_64  and  N_75 
REMARK       I    between atoms: CB_66  and  CG_69 
REMARK       I    between atoms: CG_69  and  CD_72 
REMARK       I    between atoms: N_75  and  CA_77 
REMARK       I    between atoms: CA_77  and  C_79 
REMARK       I    between atoms: CA_77  and  CB_81 
REMARK       I    between atoms: C_79  and  N_91 
REMARK       I    between atoms: CB_81  and  CG2_87 
REMARK       I    between atoms: CB_81  and  CG1_83 
REMARK       I    between atoms: N_91  and  CA_93 
REMARK       I    between atoms: CA_93  and  C_95 
REMARK       I    between atoms: CA_93  and  CB_97 
REMARK       I    between atoms: C_95  and  N_111 
REMARK       I    between atoms: CB_97  and  CG_100 
REMARK       I    between atoms: N_111  and  CA_113 
REMARK       I    between atoms: CA_113  and  CB_117 
REMARK       I    between atoms: CA_113  and  C_115 
REMARK       I    between atoms: C_115  and  O_116 
REMARK       I    between atoms: O_116  and  N_132 
REMARK       I    between atoms: CB_117  and  CG_120 
REMARK       I    between atoms: CZ_125  and  OH_126 
REMARK       I    between atoms: N_132  and  CA_134 
REMARK       I    between atoms: CA_134  and  CB_138 
REMARK       I    between atoms: CA_134  and  C_136 
REMARK       I    between atoms: CB_138  and  CG_141 
REMARK       I    between atoms: CG_141  and  CD_144 
REMARK       I    between atoms: CD_144  and  CE_147 
REMARK       I    between atoms: CE_147  and  NZ_150 
ROOT
ATOM      1  N   SER C   1       3.569  10.245  15.174  1.00  0.00    -0.064 N 
ATOM      2  H   SER C   1       2.973   9.388  15.765  1.00  0.00     0.275 HD
ATOM      3  H2  SER C   1       3.332   9.980  14.030  1.00  0.00     0.275 HD
ATOM      4  H3  SER C   1       4.723   9.964  15.321  1.00  0.00     0.275 HD
ATOM      5  CA  SER C   1       3.063  11.615  15.582  1.00  0.00     0.195 C 
ATOM      6  HA  SER C   1       1.894  11.496  15.783  1.00  0.00     0.102 H 
ATOM      7  C   SER C   1       3.501  12.536  14.439  1.00  0.00     0.251 C 
ATOM      8  O   SER C   1       4.647  12.524  13.986  1.00  0.00    -0.271 OA
ATOM      9  CB  SER C   1       3.799  12.126  16.857  1.00  0.00     0.051 C 
ATOM     10  HB2 SER C   1       3.216  13.050  17.342  1.00  0.00     0.077 H 
ATOM     11  HB3 SER C   1       4.932  12.464  16.691  1.00  0.00     0.077 H 
ATOM     12  OG  SER C   1       3.746  11.229  17.950  1.00  0.00    -0.398 OA
ATOM     13  HG  SER C   1       4.599  11.484  18.733  1.00  0.00     0.209 HD
ATOM     14  N   THR C   2       2.645  13.462  14.123  1.00  0.00    -0.344 N 
ATOM     15  H   THR C   2       1.895  13.887  14.942  1.00  0.00     0.163 HD
ATOM     16  CA  THR C   2       2.846  14.378  12.987  1.00  0.00     0.113 C 
ATOM     17  HA  THR C   2       3.305  13.634  12.175  1.00  0.00     0.091 H 
ATOM     18  C   THR C   2       3.766  15.521  13.358  1.00  0.00     0.243 C 
ATOM     19  O   THR C   2       3.873  15.884  14.534  1.00  0.00    -0.271 OA
ATOM     20  CB  THR C   2       1.511  14.974  12.535  1.00  0.00     0.060 C 
ATOM     21  HB  THR C   2       1.594  14.671  11.376  1.00  0.00     0.086 H 
ATOM     22  CG2 THR C   2       1.334  16.466  12.240  1.00  0.00    -0.050 C 
ATOM     23 1HG2 THR C   2       1.356  16.847  11.104  1.00  0.00     0.031 H 
ATOM     24 2HG2 THR C   2       1.772  17.279  13.000  1.00  0.00     0.031 H 
ATOM     25 3HG2 THR C   2       0.175  16.658  12.498  1.00  0.00     0.031 H 
ATOM     26  OG1 THR C   2       0.352  14.156  12.516  1.00  0.00    -0.393 OA
ATOM     27  HG1 THR C   2      -0.266  14.311  13.517  1.00  0.00     0.210 HD
ATOM     28  N   PHE C   3       4.439  16.099  12.364  1.00  0.00    -0.346 N 
ATOM     29  H   PHE C   3       4.424  15.666  11.257  1.00  0.00     0.163 HD
ATOM     30  CA  PHE C   3       5.339  17.221  12.598  1.00  0.00     0.093 C 
ATOM     31  HA  PHE C   3       5.530  17.363  13.769  1.00  0.00     0.088 H 
ATOM     32  C   PHE C   3       4.712  18.524  12.119  1.00  0.00     0.241 C 
ATOM     33  O   PHE C   3       3.589  18.529  11.606  1.00  0.00    -0.271 OA
ATOM     34  CB  PHE C   3       6.657  17.018  11.849  1.00  0.00    -0.014 C 
ATOM     35  HB2 PHE C   3       7.459  16.775  12.707  1.00  0.00     0.043 H 
ATOM     36  HB3 PHE C   3       6.766  16.027  11.183  1.00  0.00     0.043 H 
ATOM     37  CG  PHE C   3       7.249  17.994  10.851  1.00  0.00    -0.059 A 
ATOM     38  CD1 PHE C   3       6.522  18.405   9.724  1.00  0.00    -0.088 A 
ATOM     39  HD1 PHE C   3       5.585  17.834   9.270  1.00  0.00     0.078 H 
ATOM     40  CE1 PHE C   3       7.132  19.204   8.751  1.00  0.00    -0.011 A 
ATOM     41  HE1 PHE C   3       7.045  18.556   7.749  1.00  0.00     0.053 H 
ATOM     42  CZ  PHE C   3       8.447  19.656   8.931  1.00  0.00    -0.095 A 
ATOM     43  HZ  PHE C   3       9.259  19.611   8.063  1.00  0.00     0.077 H 
ATOM     44  CE2 PHE C   3       9.173  19.276  10.067  1.00  0.00    -0.085 A 
ATOM     45  HE2 PHE C   3      10.307  19.591  10.230  1.00  0.00     0.083 H 
ATOM     46  CD2 PHE C   3       8.556  18.476  11.035  1.00  0.00    -0.077 A 
ATOM     47  HD2 PHE C   3       9.333  18.153  11.874  1.00  0.00     0.084 H 
ATOM     48  N   ASP C   4       5.431  19.633  12.283  1.00  0.00    -0.345 N 
ATOM     49  H   ASP C   4       6.569  19.649  12.622  1.00  0.00     0.163 HD
ATOM     50  CA  ASP C   4       4.943  20.935  11.846  1.00  0.00     0.098 C 
ATOM     51  HA  ASP C   4       3.889  20.923  11.288  1.00  0.00     0.088 H 
ATOM     52  C   ASP C   4       5.997  21.656  11.015  1.00  0.00     0.241 C 
ATOM     53  O   ASP C   4       6.939  22.236  11.564  1.00  0.00    -0.271 OA
ATOM     54  CB  ASP C   4       4.598  21.813  13.051  1.00  0.00     0.043 C 
ATOM     55  HB2 ASP C   4       4.795  22.987  12.953  1.00  0.00     0.052 H 
ATOM     56  HB3 ASP C   4       3.438  21.753  13.340  1.00  0.00     0.052 H 
ATOM     57  CG  ASP C   4       5.208  21.437  14.408  1.00  0.00     0.175 C 
ATOM     58  OD1 ASP C   4       6.036  20.497  14.460  1.00  0.00    -0.648 OA
ATOM     59  OD2 ASP C   4       4.913  22.200  15.341  1.00  0.00    -0.648 OA
ATOM     60  N   GLU C   5       5.846  21.624   9.692  1.00  0.00    -0.346 N 
ATOM     61  H   GLU C   5       4.757  21.472   9.236  1.00  0.00     0.163 HD
ATOM     62  CA  GLU C   5       6.782  22.294   8.798  1.00  0.00     0.090 C 
ATOM     63  HA  GLU C   5       7.868  22.074   9.234  1.00  0.00     0.087 H 
ATOM     64  C   GLU C   5       6.549  23.800   8.804  1.00  0.00     0.241 C 
ATOM     65  O   GLU C   5       5.402  24.257   8.852  1.00  0.00    -0.271 OA
ATOM     66  CB  GLU C   5       6.612  21.788   7.364  1.00  0.00    -0.029 C 
ATOM     67  HB2 GLU C   5       6.241  20.699   7.045  1.00  0.00     0.037 H 
ATOM     68  HB3 GLU C   5       5.629  22.346   6.963  1.00  0.00     0.037 H 
ATOM     69  CG  GLU C   5       7.682  22.199   6.348  1.00  0.00     0.018 C 
ATOM     70  HG2 GLU C   5       8.774  21.806   6.639  1.00  0.00     0.049 H 
ATOM     71  HG3 GLU C   5       7.870  23.339   6.081  1.00  0.00     0.049 H 
ATOM     72  CD  GLU C   5       7.500  21.520   4.990  1.00  0.00     0.172 C 
ATOM     73  OE1 GLU C   5       6.934  22.171   4.085  1.00  0.00    -0.648 OA
ATOM     74  OE2 GLU C   5       8.129  20.456   4.797  1.00  0.00    -0.648 OA
ATOM     75  N   VAL C   6       7.630  24.576   8.756  1.00  0.00    -0.346 N 
ATOM     76  H   VAL C   6       8.751  24.180   8.807  1.00  0.00     0.163 HD
ATOM     77  CA  VAL C   6       7.529  26.031   8.737  1.00  0.00     0.087 C 
ATOM     78  HA  VAL C   6       6.466  26.522   8.965  1.00  0.00     0.087 H 
ATOM     79  C   VAL C   6       7.804  26.572   7.340  1.00  0.00     0.221 C 
ATOM     80  O   VAL C   6       8.241  27.717   7.186  1.00  0.00    -0.278 OA
ATOM     81  CB  VAL C   6       8.542  26.653   9.701  1.00  0.00    -0.033 C 
ATOM     82  HB  VAL C   6       9.625  26.150   9.629  1.00  0.00     0.042 H 
ATOM     83  CG1 VAL C   6       8.923  28.137   9.613  1.00  0.00    -0.071 C 
ATOM     84 1HG1 VAL C   6       9.128  28.678  10.667  1.00  0.00     0.028 H 
ATOM     85 2HG1 VAL C   6       9.986  28.331   9.091  1.00  0.00     0.028 H 
ATOM     86 3HG1 VAL C   6       8.162  28.946   9.160  1.00  0.00     0.028 H 
ATOM     87  CG2 VAL C   6       8.023  26.376  11.094  1.00  0.00    -0.071 C 
ATOM     88 1HG2 VAL C   6       8.931  26.340  11.878  1.00  0.00     0.028 H 
ATOM     89 2HG2 VAL C   6       7.266  27.192  11.536  1.00  0.00     0.028 H 
ATOM     90 3HG2 VAL C   6       7.455  25.375  11.424  1.00  0.00     0.028 H 
ATOM     91  N   PHE C   7       7.550  25.753   6.321  1.00  0.00    -0.247 NA
ATOM     92  H   PHE C   7       6.427  25.379   6.408  1.00  0.00     0.131 HD
ATOM     93  CA  PHE C   7       7.755  26.164   4.938  1.00  0.00     0.080 C 
ATOM     94  HA  PHE C   7       7.941  27.322   4.721  1.00  0.00     0.079 H 
ATOM     95  C   PHE C   7       6.533  25.834   4.091  1.00  0.00     0.236 C 
ATOM     96  O   PHE C   7       6.478  24.779   3.452  1.00  0.00    -0.272 OA
ATOM     97  CB  PHE C   7       8.964  25.444   4.337  1.00  0.00    -0.018 C 
ATOM     98  HB2 PHE C   7       9.465  24.572   4.984  1.00  0.00     0.043 H 
ATOM     99  HB3 PHE C   7       9.789  26.298   4.506  1.00  0.00     0.043 H 
ATOM    100  CG  PHE C   7       9.504  24.886   3.035  1.00  0.00    -0.056 A 
ATOM    101  CD1 PHE C   7       8.966  23.694   2.531  1.00  0.00    -0.077 A 
ATOM    102  HD1 PHE C   7       7.859  23.386   2.228  1.00  0.00     0.084 H 
ATOM    103  CE1 PHE C   7       9.648  22.983   1.524  1.00  0.00    -0.082 A 
ATOM    104  HE1 PHE C   7       9.510  21.844   1.214  1.00  0.00     0.083 H 
ATOM    105  CZ  PHE C   7      10.723  23.601   0.870  1.00  0.00    -0.083 A 
ATOM    106  HZ  PHE C   7      11.250  23.094  -0.065  1.00  0.00     0.083 H 
ATOM    107  CE2 PHE C   7      11.249  24.805   1.352  1.00  0.00    -0.082 A 
ATOM    108  HE2 PHE C   7      12.333  25.120   0.982  1.00  0.00     0.083 H 
ATOM    109  CD2 PHE C   7      10.574  25.513   2.365  1.00  0.00    -0.077 A 
ATOM    110  HD2 PHE C   7      10.989  26.626   2.410  1.00  0.00     0.084 H 
ATOM    111  N   TYR C   8       5.549  26.733   4.080  1.00  0.00    -0.351 N 
ATOM    112  H   TYR C   8       5.590  27.669   4.808  1.00  0.00     0.163 HD
ATOM    113  CA  TYR C   8       4.318  26.531   3.276  1.00  0.00     0.054 C 
ATOM    114  HA  TYR C   8       3.639  25.663   3.730  1.00  0.00     0.078 H 
ATOM    115  C   TYR C   8       4.680  25.962   1.889  1.00  0.00     0.186 C 
ATOM    116  O   TYR C   8       5.632  26.424   1.251  1.00  0.00    -0.264 OA
ATOM    117  CB  TYR C   8       3.578  27.856   3.083  1.00  0.00    -0.019 C 
ATOM    118  HB2 TYR C   8       2.450  27.599   2.787  1.00  0.00     0.043 H 
ATOM    119  HB3 TYR C   8       3.958  28.475   2.137  1.00  0.00     0.043 H 
ATOM    120  CG  TYR C   8       3.424  28.851   4.203  1.00  0.00    -0.056 A 
ATOM    121  CD1 TYR C   8       2.620  28.589   5.325  1.00  0.00    -0.074 A 
ATOM    122  HD1 TYR C   8       1.739  27.797   5.419  1.00  0.00     0.084 H 
ATOM    123  CE1 TYR C   8       2.659  29.471   6.420  1.00  0.00    -0.051 A 
ATOM    124  HE1 TYR C   8       1.936  29.366   7.355  1.00  0.00     0.087 H 
ATOM    125  CZ  TYR C   8       3.495  30.607   6.366  1.00  0.00     0.065 A 
ATOM    126  OH  TYR C   8       3.635  31.409   7.460  1.00  0.00    -0.361 OA
ATOM    127  HH  TYR C   8       4.341  32.329   7.225  1.00  0.00     0.217 HD
ATOM    128  CE2 TYR C   8       4.199  30.929   5.192  1.00  0.00    -0.051 A 
ATOM    129  HE2 TYR C   8       4.856  31.902   5.012  1.00  0.00     0.087 H 
ATOM    130  CD2 TYR C   8       4.133  30.059   4.094  1.00  0.00    -0.074 A 
ATOM    131  HD2 TYR C   8       4.503  30.626   3.117  1.00  0.00     0.084 H 
ATOM    132  N   LYS C   9       4.546  26.132   0.205  1.00  0.00    -0.286 N 
ATOM    133  H   LYS C   9       3.361  26.079   0.139  1.00  0.00     0.188 HD
ATOM    134  CA  LYS C   9       5.446  26.214  -0.946  1.00  0.00     0.114 C 
ATOM    135  HA  LYS C   9       6.613  26.063  -0.767  1.00  0.00     0.092 H 
ATOM    136  C   LYS C   9       5.417  27.680  -1.532  1.00  0.00     0.198 C 
ATOM    137  O   LYS C   9       4.546  28.498  -1.140  1.00  0.00    -0.646 OA
ATOM    138  CB  LYS C   9       5.010  25.222  -2.159  1.00  0.00    -0.035 C 
ATOM    139  HB2 LYS C   9       5.007  25.897  -3.149  1.00  0.00     0.036 H 
ATOM    140  HB3 LYS C   9       3.860  25.005  -1.914  1.00  0.00     0.036 H 
ATOM    141  CG  LYS C   9       5.777  23.931  -2.412  1.00  0.00    -0.061 C 
ATOM    142  HG2 LYS C   9       6.936  24.080  -2.649  1.00  0.00     0.033 H 
ATOM    143  HG3 LYS C   9       5.714  23.263  -1.427  1.00  0.00     0.033 H 
ATOM    144  CD  LYS C   9       4.975  23.406  -3.602  1.00  0.00    -0.043 C 
ATOM    145  HD2 LYS C   9       3.903  22.984  -3.249  1.00  0.00     0.035 H 
ATOM    146  HD3 LYS C   9       4.685  24.119  -4.524  1.00  0.00     0.035 H 
ATOM    147  CE  LYS C   9       5.563  22.122  -4.148  1.00  0.00     0.080 C 
ATOM    148  HE2 LYS C   9       4.733  21.333  -4.506  1.00  0.00     0.075 H 
ATOM    149  HE3 LYS C   9       6.159  21.417  -3.384  1.00  0.00     0.075 H 
ATOM    150  NZ  LYS C   9       6.373  22.516  -5.308  1.00  0.00    -0.079 N 
ATOM    151  HZ1 LYS C   9       5.739  22.595  -6.323  1.00  0.00     0.274 HD
ATOM    152  HZ2 LYS C   9       7.118  23.452  -5.364  1.00  0.00     0.274 HD
ATOM    153  HZ3 LYS C   9       7.126  21.613  -5.548  1.00  0.00     0.274 HD
ATOM    154  OXT LYS C   9       6.266  28.002  -2.371  1.00  0.00    -0.646 OA
ENDROOT
TORSDOF 45
