REMARK  0 active torsions:
REMARK  status: ('A' for Active; 'I' for Inactive)
REMARK       I    between atoms: N_1  and  CA_5 
REMARK       I    between atoms: CA_5  and  C_7 
REMARK       I    between atoms: CA_5  and  CB_9 
REMARK       I    between atoms: C_7  and  N_14 
REMARK       I    between atoms: CB_9  and  OG_12 
REMARK       I    between atoms: N_14  and  CA_16 
REMARK       I    between atoms: CA_16  and  CB_20 
REMARK       I    between atoms: CA_16  and  C_18 
REMARK       I    between atoms: C_18  and  N_28 
REMARK       I    between atoms: CB_20  and  CG2_22 
REMARK       I    between atoms: CB_20  and  OG1_26 
REMARK       I    between atoms: N_28  and  CA_30 
REMARK       I    between atoms: CA_30  and  CB_34 
REMARK       I    between atoms: CA_30  and  C_32 
REMARK       I    between atoms: C_32  and  N_48 
REMARK       I    between atoms: CB_34  and  CG_37 
REMARK       I    between atoms: N_48  and  CA_50 
REMARK       I    between atoms: CA_50  and  CB_54 
REMARK       I    between atoms: CA_50  and  C_52 
REMARK       I    between atoms: C_52  and  N_60 
REMARK       I    between atoms: CB_54  and  CG_57 
REMARK       I    between atoms: N_60  and  CA_62 
REMARK       I    between atoms: CA_62  and  C_64 
REMARK       I    between atoms: CA_62  and  CB_66 
REMARK       I    between atoms: C_64  and  N_75 
REMARK       I    between atoms: CB_66  and  CG_69 
REMARK       I    between atoms: CG_69  and  CD_72 
REMARK       I    between atoms: N_75  and  CA_77 
REMARK       I    between atoms: CA_77  and  CB_81 
REMARK       I    between atoms: CA_77  and  C_79 
REMARK       I    between atoms: C_79  and  N_91 
REMARK       I    between atoms: CB_81  and  CG2_87 
REMARK       I    between atoms: CB_81  and  CG1_83 
REMARK       I    between atoms: N_91  and  CA_93 
REMARK       I    between atoms: CA_93  and  C_95 
REMARK       I    between atoms: CA_93  and  CB_97 
REMARK       I    between atoms: C_95  and  N_111 
REMARK       I    between atoms: CB_97  and  CG_100 
REMARK       I    between atoms: N_111  and  CA_113 
REMARK       I    between atoms: CA_113  and  CB_117 
REMARK       I    between atoms: CB_117  and  CG_120 
REMARK       I    between atoms: CZ_125  and  OH_126 
REMARK       I    between atoms: N_132  and  CA_134 
REMARK       I    between atoms: CA_134  and  CB_138 
REMARK       I    between atoms: CA_134  and  C_136 
REMARK       I    between atoms: CB_138  and  CG_141 
REMARK       I    between atoms: CG_141  and  CD_144 
REMARK       I    between atoms: CD_144  and  CE_147 
REMARK       I    between atoms: CE_147  and  NZ_150 
ROOT
ATOM      1  N   SER C   1       3.569  10.245  15.174  1.00  0.00    -0.064 N 
ATOM      2  H   SER C   1       3.311   9.970  14.036  1.00  0.00     0.275 HD
ATOM      3  H2  SER C   1       4.727   9.956  15.294  1.00  0.00     0.275 HD
ATOM      4  H3  SER C   1       3.010   9.379  15.787  1.00  0.00     0.275 HD
ATOM      5  CA  SER C   1       3.063  11.615  15.582  1.00  0.00     0.195 C 
ATOM      6  HA  SER C   1       1.895  11.526  15.797  1.00  0.00     0.102 H 
ATOM      7  C   SER C   1       3.501  12.536  14.439  1.00  0.00     0.251 C 
ATOM      8  O   SER C   1       4.647  12.524  13.986  1.00  0.00    -0.271 OA
ATOM      9  CB  SER C   1       3.799  12.126  16.857  1.00  0.00     0.051 C 
ATOM     10  HB2 SER C   1       3.233  13.071  17.321  1.00  0.00     0.077 H 
ATOM     11  HB3 SER C   1       4.953  12.400  16.709  1.00  0.00     0.077 H 
ATOM     12  OG  SER C   1       3.742  11.226  17.947  1.00  0.00    -0.398 OA
ATOM     13  HG  SER C   1       4.362  11.640  18.869  1.00  0.00     0.209 HD
ATOM     14  N   THR C   2       2.645  13.462  14.123  1.00  0.00    -0.344 N 
ATOM     15  H   THR C   2       1.824  13.831  14.900  1.00  0.00     0.163 HD
ATOM     16  CA  THR C   2       2.846  14.378  12.987  1.00  0.00     0.113 C 
ATOM     17  HA  THR C   2       3.314  13.633  12.180  1.00  0.00     0.091 H 
ATOM     18  C   THR C   2       3.766  15.521  13.358  1.00  0.00     0.243 C 
ATOM     19  O   THR C   2       3.873  15.884  14.534  1.00  0.00    -0.271 OA
ATOM     20  CB  THR C   2       1.511  14.974  12.535  1.00  0.00     0.060 C 
ATOM     21  HB  THR C   2       1.611  14.675  11.377  1.00  0.00     0.086 H 
ATOM     22  CG2 THR C   2       1.343  16.467  12.249  1.00  0.00    -0.050 C 
ATOM     23 1HG2 THR C   2       1.692  17.221  13.111  1.00  0.00     0.031 H 
ATOM     24 2HG2 THR C   2       1.607  16.860  11.149  1.00  0.00     0.031 H 
ATOM     25 3HG2 THR C   2       0.164  16.690  12.282  1.00  0.00     0.031 H 
ATOM     26  OG1 THR C   2       0.353  14.156  12.518  1.00  0.00    -0.393 OA
ATOM     27  HG1 THR C   2      -0.365  14.442  13.417  1.00  0.00     0.210 HD
ATOM     28  N   PHE C   3       4.439  16.099  12.364  1.00  0.00    -0.346 N 
ATOM     29  H   PHE C   3       4.530  15.612  11.282  1.00  0.00     0.163 HD
ATOM     30  CA  PHE C   3       5.339  17.221  12.598  1.00  0.00     0.093 C 
ATOM     31  HA  PHE C   3       4.907  17.900  13.478  1.00  0.00     0.088 H 
ATOM     32  C   PHE C   3       5.522  18.040  11.327  1.00  0.00     0.241 C 
ATOM     33  O   PHE C   3       6.070  17.548  10.336  1.00  0.00    -0.271 OA
ATOM     34  CB  PHE C   3       6.713  16.722  13.049  1.00  0.00    -0.014 C 
ATOM     35  HB2 PHE C   3       6.831  15.543  12.886  1.00  0.00     0.043 H 
ATOM     36  HB3 PHE C   3       6.684  16.808  14.242  1.00  0.00     0.043 H 
ATOM     37  CG  PHE C   3       8.171  16.992  12.723  1.00  0.00    -0.056 A 
ATOM     38  CD1 PHE C   3       8.709  16.668  11.470  1.00  0.00    -0.077 A 
ATOM     39  HD1 PHE C   3       8.233  16.182  10.493  1.00  0.00     0.084 H 
ATOM     40  CE1 PHE C   3      10.107  16.665  11.298  1.00  0.00    -0.082 A 
ATOM     41  HE1 PHE C   3      10.666  16.115  10.405  1.00  0.00     0.083 H 
ATOM     42  CZ  PHE C   3      10.933  17.171  12.314  1.00  0.00    -0.083 A 
ATOM     43  HZ  PHE C   3      12.092  17.330  12.104  1.00  0.00     0.083 H 
ATOM     44  CE2 PHE C   3      10.398  17.517  13.556  1.00  0.00    -0.082 A 
ATOM     45  HE2 PHE C   3      11.167  17.639  14.454  1.00  0.00     0.083 H 
ATOM     46  CD2 PHE C   3       8.996  17.525  13.728  1.00  0.00    -0.077 A 
ATOM     47  HD2 PHE C   3       8.734  18.096  14.736  1.00  0.00     0.084 H 
ATOM     48  N   ASP C   4       5.065  19.292  11.348  1.00  0.00    -0.345 N 
ATOM     49  H   ASP C   4       4.886  19.885  12.364  1.00  0.00     0.163 HD
ATOM     50  CA  ASP C   4       5.201  20.176  10.197  1.00  0.00     0.098 C 
ATOM     51  HA  ASP C   4       5.961  19.807   9.355  1.00  0.00     0.088 H 
ATOM     52  C   ASP C   4       5.599  21.578  10.638  1.00  0.00     0.241 C 
ATOM     53  O   ASP C   4       4.752  22.472  10.729  1.00  0.00    -0.271 OA
ATOM     54  CB  ASP C   4       3.879  20.271   9.432  1.00  0.00     0.043 C 
ATOM     55  HB2 ASP C   4       3.854  19.449   8.564  1.00  0.00     0.052 H 
ATOM     56  HB3 ASP C   4       3.611  21.291   8.870  1.00  0.00     0.052 H 
ATOM     57  CG  ASP C   4       2.585  19.910  10.165  1.00  0.00     0.175 C 
ATOM     58  OD1 ASP C   4       2.642  19.676  11.401  1.00  0.00    -0.648 OA
ATOM     59  OD2 ASP C   4       1.557  20.029   9.484  1.00  0.00    -0.648 OA
ATOM     60  N   GLU C   5       6.887  21.779  10.915  1.00  0.00    -0.346 N 
ATOM     61  H   GLU C   5       7.656  20.871  10.859  1.00  0.00     0.163 HD
ATOM     62  CA  GLU C   5       7.388  23.084  11.328  1.00  0.00     0.090 C 
ATOM     63  HA  GLU C   5       6.572  23.743  11.895  1.00  0.00     0.087 H 
ATOM     64  C   GLU C   5       7.747  23.932  10.115  1.00  0.00     0.241 C 
ATOM     65  O   GLU C   5       8.188  25.077  10.258  1.00  0.00    -0.271 OA
ATOM     66  CB  GLU C   5       8.640  22.930  12.194  1.00  0.00    -0.029 C 
ATOM     67  HB2 GLU C   5       8.699  21.844  12.687  1.00  0.00     0.037 H 
ATOM     68  HB3 GLU C   5       9.694  23.113  11.661  1.00  0.00     0.037 H 
ATOM     69  CG  GLU C   5       8.758  23.783  13.466  1.00  0.00     0.018 C 
ATOM     70  HG2 GLU C   5       8.890  24.958  13.286  1.00  0.00     0.049 H 
ATOM     71  HG3 GLU C   5       7.830  23.726  14.220  1.00  0.00     0.049 H 
ATOM     72  CD  GLU C   5       9.947  23.413  14.365  1.00  0.00     0.172 C 
ATOM     73  OE1 GLU C   5      10.983  24.101  14.264  1.00  0.00    -0.648 OA
ATOM     74  OE2 GLU C   5       9.700  22.675  15.342  1.00  0.00    -0.648 OA
ATOM     75  N   VAL C   6       7.562  23.378   8.918  1.00  0.00    -0.346 N 
ATOM     76  H   VAL C   6       6.748  22.572   8.612  1.00  0.00     0.163 HD
ATOM     77  CA  VAL C   6       7.853  24.102   7.685  1.00  0.00     0.092 C 
ATOM     78  HA  VAL C   6       8.598  24.986   7.984  1.00  0.00     0.088 H 
ATOM     79  C   VAL C   6       6.591  24.746   7.127  1.00  0.00     0.241 C 
ATOM     80  O   VAL C   6       5.497  24.553   7.667  1.00  0.00    -0.271 OA
ATOM     81  CB  VAL C   6       8.416  23.153   6.624  1.00  0.00    -0.033 C 
ATOM     82  HB  VAL C   6       9.513  23.629   6.539  1.00  0.00     0.042 H 
ATOM     83  CG1 VAL C   6       7.956  23.370   5.191  1.00  0.00    -0.071 C 
ATOM     84 1HG1 VAL C   6       8.545  22.555   4.515  1.00  0.00     0.028 H 
ATOM     85 2HG1 VAL C   6       6.844  22.947   5.028  1.00  0.00     0.028 H 
ATOM     86 3HG1 VAL C   6       8.381  24.320   4.586  1.00  0.00     0.028 H 
ATOM     87  CG2 VAL C   6       8.949  21.746   6.936  1.00  0.00    -0.071 C 
ATOM     88 1HG2 VAL C   6      10.035  21.502   6.483  1.00  0.00     0.028 H 
ATOM     89 2HG2 VAL C   6       8.254  20.889   6.469  1.00  0.00     0.028 H 
ATOM     90 3HG2 VAL C   6       9.142  21.381   8.061  1.00  0.00     0.028 H 
ATOM     91  N   PHE C   7       6.738  25.512   6.047  1.00  0.00    -0.346 N 
ATOM     92  H   PHE C   7       7.764  26.108   5.949  1.00  0.00     0.163 HD
ATOM     93  CA  PHE C   7       5.602  26.167   5.411  1.00  0.00     0.093 C 
ATOM     94  HA  PHE C   7       4.601  25.787   5.935  1.00  0.00     0.088 H 
ATOM     95  C   PHE C   7       5.506  25.773   3.943  1.00  0.00     0.242 C 
ATOM     96  O   PHE C   7       6.366  25.050   3.429  1.00  0.00    -0.271 OA
ATOM     97  CB  PHE C   7       5.743  27.688   5.492  1.00  0.00    -0.014 C 
ATOM     98  HB2 PHE C   7       4.832  28.029   6.191  1.00  0.00     0.043 H 
ATOM     99  HB3 PHE C   7       6.645  28.158   6.125  1.00  0.00     0.043 H 
ATOM    100  CG  PHE C   7       5.740  28.659   4.316  1.00  0.00    -0.056 A 
ATOM    101  CD1 PHE C   7       6.666  28.549   3.267  1.00  0.00    -0.077 A 
ATOM    102  HD1 PHE C   7       7.780  28.186   3.478  1.00  0.00     0.084 H 
ATOM    103  CE1 PHE C   7       6.703  29.494   2.228  1.00  0.00    -0.082 A 
ATOM    104  HE1 PHE C   7       7.681  29.714   1.587  1.00  0.00     0.083 H 
ATOM    105  CZ  PHE C   7       5.777  30.544   2.197  1.00  0.00    -0.083 A 
ATOM    106  HZ  PHE C   7       5.830  31.407   1.380  1.00  0.00     0.083 H 
ATOM    107  CE2 PHE C   7       4.863  30.682   3.253  1.00  0.00    -0.082 A 
ATOM    108  HE2 PHE C   7       4.254  31.701   3.310  1.00  0.00     0.083 H 
ATOM    109  CD2 PHE C   7       4.814  29.716   4.269  1.00  0.00    -0.077 A 
ATOM    110  HD2 PHE C   7       4.093  30.116   5.126  1.00  0.00     0.084 H 
ATOM    111  N   TYR C   8       4.462  26.244   3.261  1.00  0.00    -0.326 N 
ATOM    112  H   TYR C   8       3.489  26.421   3.920  1.00  0.00     0.165 HD
ATOM    113  CA  TYR C   8       4.273  25.944   1.820  1.00  0.00     0.223 A 
ATOM    114  HA  TYR C   8       4.139  24.772   2.025  1.00  0.00     0.129 H 
ATOM    115  C   TYR C   8       5.488  26.444   1.013  1.00  0.00     0.366 A 
ATOM    116  O   TYR C   8       5.978  27.555   1.239  1.00  0.00    -0.261 OA
ATOM    117  CB  TYR C   8       3.015  26.635   1.288  1.00  0.00     0.007 C 
ATOM    118  HB2 TYR C   8       3.245  27.804   1.171  1.00  0.00     0.046 H 
ATOM    119  HB3 TYR C   8       2.330  26.392   0.333  1.00  0.00     0.046 H 
ATOM    120  CG  TYR C   8       1.731  26.673   2.086  1.00  0.00    -0.054 A 
ATOM    121  CD1 TYR C   8       0.966  25.518   2.333  1.00  0.00    -0.074 A 
ATOM    122  HD1 TYR C   8       0.975  24.476   1.756  1.00  0.00     0.084 H 
ATOM    123  CE1 TYR C   8      -0.111  25.580   3.225  1.00  0.00    -0.051 A 
ATOM    124  HE1 TYR C   8      -0.830  24.659   3.442  1.00  0.00     0.087 H 
ATOM    125  CZ  TYR C   8      -0.424  26.807   3.859  1.00  0.00     0.065 A 
ATOM    126  OH  TYR C   8      -1.391  26.863   4.816  1.00  0.00    -0.361 OA
ATOM    127  HH  TYR C   8      -0.891  26.813   5.889  1.00  0.00     0.217 HD
ATOM    128  CE2 TYR C   8       0.264  27.985   3.509  1.00  0.00    -0.051 A 
ATOM    129  HE2 TYR C   8      -0.132  29.016   3.949  1.00  0.00     0.087 H 
ATOM    130  CD2 TYR C   8       1.312  27.917   2.588  1.00  0.00    -0.074 A 
ATOM    131  HD2 TYR C   8       1.272  28.934   1.969  1.00  0.00     0.084 H 
ATOM    132  N   LYS C   9       4.546  26.132   0.205  1.00  0.00     0.035 N 
ATOM    133  H   LYS C   9       4.119  25.053  -0.083  1.00  0.00     0.294 HD
ATOM    134  CA  LYS C   9       5.446  26.214  -0.946  1.00  0.00     0.197 C 
ATOM    135  HA  LYS C   9       6.622  26.042  -0.830  1.00  0.00     0.103 H 
ATOM    136  C   LYS C   9       5.417  27.680  -1.532  1.00  0.00     0.205 C 
ATOM    137  O   LYS C   9       4.546  28.498  -1.140  1.00  0.00    -0.646 OA
ATOM    138  CB  LYS C   9       5.010  25.222  -2.159  1.00  0.00    -0.028 C 
ATOM    139  HB2 LYS C   9       5.361  25.889  -3.089  1.00  0.00     0.036 H 
ATOM    140  HB3 LYS C   9       3.818  25.233  -2.255  1.00  0.00     0.036 H 
ATOM    141  CG  LYS C   9       5.783  23.932  -2.415  1.00  0.00    -0.061 C 
ATOM    142  HG2 LYS C   9       5.782  23.200  -1.468  1.00  0.00     0.033 H 
ATOM    143  HG3 LYS C   9       6.945  24.101  -2.634  1.00  0.00     0.033 H 
ATOM    144  CD  LYS C   9       4.982  23.400  -3.602  1.00  0.00    -0.043 C 
ATOM    145  HD2 LYS C   9       3.954  22.970  -3.169  1.00  0.00     0.035 H 
ATOM    146  HD3 LYS C   9       4.603  24.133  -4.473  1.00  0.00     0.035 H 
ATOM    147  CE  LYS C   9       5.565  22.115  -4.150  1.00  0.00     0.080 C 
ATOM    148  HE2 LYS C   9       4.708  21.388  -4.572  1.00  0.00     0.075 H 
ATOM    149  HE3 LYS C   9       6.167  21.383  -3.416  1.00  0.00     0.075 H 
ATOM    150  NZ  LYS C   9       6.378  22.511  -5.312  1.00  0.00    -0.079 N 
ATOM    151  HZ1 LYS C   9       6.513  21.571  -6.052  1.00  0.00     0.274 HD
ATOM    152  HZ2 LYS C   9       7.517  22.756  -5.024  1.00  0.00     0.274 HD
ATOM    153  HZ3 LYS C   9       6.098  23.369  -6.103  1.00  0.00     0.274 HD
ATOM    154  OXT LYS C   9       6.255  28.016  -2.388  1.00  0.00    -0.646 OA
ENDROOT
TORSDOF 42
