REMARK  0 active torsions:
REMARK  status: ('A' for Active; 'I' for Inactive)
REMARK       I    between atoms: N_1  and  CA_5 
REMARK       I    between atoms: CA_5  and  CB_9 
REMARK       I    between atoms: CA_5  and  C_7 
REMARK       I    between atoms: CB_9  and  OG_12 
REMARK       I    between atoms: CA_16  and  CB_20 
REMARK       I    between atoms: CA_16  and  C_18 
REMARK       I    between atoms: C_18  and  N_28 
REMARK       I    between atoms: CB_20  and  CG2_22 
REMARK       I    between atoms: CB_20  and  OG1_26 
REMARK       I    between atoms: N_28  and  CA_30 
REMARK       I    between atoms: CA_30  and  C_32 
REMARK       I    between atoms: CA_30  and  CB_34 
REMARK       I    between atoms: C_32  and  N_48 
REMARK       I    between atoms: CB_34  and  CG_37 
REMARK       I    between atoms: N_48  and  CA_50 
REMARK       I    between atoms: CA_50  and  C_52 
REMARK       I    between atoms: CA_50  and  CB_54 
REMARK       I    between atoms: C_52  and  N_60 
REMARK       I    between atoms: CB_54  and  CG_57 
REMARK       I    between atoms: N_60  and  CA_62 
REMARK       I    between atoms: CA_62  and  CB_66 
REMARK       I    between atoms: CA_62  and  C_64 
REMARK       I    between atoms: C_64  and  N_75 
REMARK       I    between atoms: CB_66  and  CG_69 
REMARK       I    between atoms: CG_69  and  CD_72 
REMARK       I    between atoms: N_75  and  CA_77 
REMARK       I    between atoms: CA_77  and  CB_81 
REMARK       I    between atoms: CA_77  and  C_79 
REMARK       I    between atoms: C_79  and  N_91 
REMARK       I    between atoms: CB_81  and  CG2_87 
REMARK       I    between atoms: CB_81  and  CG1_83 
REMARK       I    between atoms: N_91  and  CA_93 
REMARK       I    between atoms: CA_93  and  CB_97 
REMARK       I    between atoms: CA_93  and  C_95 
REMARK       I    between atoms: C_95  and  N_111 
REMARK       I    between atoms: CB_97  and  CG_100 
REMARK       I    between atoms: N_111  and  CA_113 
REMARK       I    between atoms: CA_113  and  CB_117 
REMARK       I    between atoms: CA_113  and  C_115 
REMARK       I    between atoms: C_115  and  N_132 
REMARK       I    between atoms: CB_117  and  CG_120 
REMARK       I    between atoms: CZ_125  and  OH_126 
REMARK       I    between atoms: N_132  and  CA_134 
REMARK       I    between atoms: CA_134  and  C_136 
REMARK       I    between atoms: CA_134  and  CB_138 
REMARK       I    between atoms: CB_138  and  CG_141 
REMARK       I    between atoms: CG_141  and  CD_144 
REMARK       I    between atoms: CD_144  and  CE_147 
REMARK       I    between atoms: CE_147  and  NZ_150 
ROOT
ATOM      1  N   SER C   1       3.569  10.245  15.174  1.00  0.00    -0.065 N 
ATOM      2  H   SER C   1       3.260   9.403  15.982  1.00  0.00     0.275 HD
ATOM      3  H2  SER C   1       3.177   9.630  14.223  1.00  0.00     0.275 HD
ATOM      4  H3  SER C   1       4.758  10.073  15.109  1.00  0.00     0.275 HD
ATOM      5  CA  SER C   1       3.063  11.615  15.582  1.00  0.00     0.189 C 
ATOM      6  HA  SER C   1       1.954  11.303  15.903  1.00  0.00     0.102 H 
ATOM      7  C   SER C   1       3.501  12.536  14.439  1.00  0.00     0.205 A 
ATOM      8  O   SER C   1       4.647  12.524  13.986  1.00  0.00    -0.278 OA
ATOM      9  CB  SER C   1       3.799  12.126  16.857  1.00  0.00     0.051 C 
ATOM     10  HB2 SER C   1       3.275  13.045  17.422  1.00  0.00     0.077 H 
ATOM     11  HB3 SER C   1       4.965  12.355  16.706  1.00  0.00     0.077 H 
ATOM     12  OG  SER C   1       3.756  11.238  17.959  1.00  0.00    -0.398 OA
ATOM     13  HG  SER C   1       4.462  11.617  18.831  1.00  0.00     0.209 HD
ATOM     14  N   THR C   2       2.681  13.166  14.852  1.00  0.00    -0.344 N 
ATOM     15  H   THR C   2       1.720  13.648  15.363  1.00  0.00     0.163 HD
ATOM     16  CA  THR C   2       3.279  13.632  13.589  1.00  0.00     0.151 A 
ATOM     17  HA  THR C   2       4.142  14.331  14.040  1.00  0.00     0.101 H 
ATOM     18  C   THR C   2       2.781  15.013  13.221  1.00  0.00     0.249 C 
ATOM     19  O   THR C   2       1.685  15.413  13.627  1.00  0.00    -0.271 OA
ATOM     20  CB  THR C   2       2.925  12.681  12.443  1.00  0.00     0.065 C 
ATOM     21  HB  THR C   2       3.995  12.496  11.955  1.00  0.00     0.086 H 
ATOM     22  CG2 THR C   2       2.443  13.210  11.087  1.00  0.00    -0.050 C 
ATOM     23 1HG2 THR C   2       1.315  13.614  11.183  1.00  0.00     0.031 H 
ATOM     24 2HG2 THR C   2       2.264  12.304  10.315  1.00  0.00     0.031 H 
ATOM     25 3HG2 THR C   2       2.998  13.921  10.298  1.00  0.00     0.031 H 
ATOM     26  OG1 THR C   2       2.858  11.270  12.595  1.00  0.00    -0.393 OA
ATOM     27  HG1 THR C   2       1.777  10.873  12.290  1.00  0.00     0.210 HD
ATOM     28  N   PHE C   3       3.576  15.753  12.451  1.00  0.00    -0.346 N 
ATOM     29  H   PHE C   3       4.708  15.508  12.178  1.00  0.00     0.163 HD
ATOM     30  CA  PHE C   3       3.192  17.091  12.017  1.00  0.00     0.088 C 
ATOM     31  HA  PHE C   3       2.005  17.183  11.916  1.00  0.00     0.087 H 
ATOM     32  C   PHE C   3       3.750  17.389  10.631  1.00  0.00     0.221 C 
ATOM     33  O   PHE C   3       4.358  16.519   9.999  1.00  0.00    -0.278 OA
ATOM     34  CB  PHE C   3       3.730  18.146  12.987  1.00  0.00    -0.014 C 
ATOM     35  HB2 PHE C   3       4.297  17.708  13.930  1.00  0.00     0.043 H 
ATOM     36  HB3 PHE C   3       2.759  18.615  13.497  1.00  0.00     0.043 H 
ATOM     37  CG  PHE C   3       4.635  19.314  12.600  1.00  0.00    -0.056 A 
ATOM     38  CD1 PHE C   3       5.850  19.122  11.930  1.00  0.00    -0.077 A 
ATOM     39  HD1 PHE C   3       6.555  18.215  12.241  1.00  0.00     0.084 H 
ATOM     40  CE1 PHE C   3       6.693  20.215  11.617  1.00  0.00    -0.082 A 
ATOM     41  HE1 PHE C   3       7.879  20.173  11.719  1.00  0.00     0.083 H 
ATOM     42  CZ  PHE C   3       6.306  21.519  11.938  1.00  0.00    -0.083 A 
ATOM     43  HZ  PHE C   3       7.009  22.460  11.765  1.00  0.00     0.083 H 
ATOM     44  CE2 PHE C   3       5.122  21.723  12.643  1.00  0.00    -0.082 A 
ATOM     45  HE2 PHE C   3       4.944  22.817  13.073  1.00  0.00     0.083 H 
ATOM     46  CD2 PHE C   3       4.273  20.634  12.940  1.00  0.00    -0.077 A 
ATOM     47  HD2 PHE C   3       3.506  21.026  13.760  1.00  0.00     0.084 H 
ATOM     48  N   ASP C   4       3.547  18.615  10.152  1.00  0.00    -0.247 NA
ATOM     49  H   ASP C   4       2.359  18.693  10.099  1.00  0.00     0.131 HD
ATOM     50  CA  ASP C   4       4.051  19.020   8.845  1.00  0.00     0.085 C 
ATOM     51  HA  ASP C   4       3.573  18.265   8.055  1.00  0.00     0.080 H 
ATOM     52  C   ASP C   4       5.573  19.090   8.852  1.00  0.00     0.236 C 
ATOM     53  O   ASP C   4       6.172  19.627   9.790  1.00  0.00    -0.272 OA
ATOM     54  CB  ASP C   4       3.509  20.399   8.464  1.00  0.00     0.039 C 
ATOM     55  HB2 ASP C   4       2.536  20.340   7.766  1.00  0.00     0.052 H 
ATOM     56  HB3 ASP C   4       4.290  21.110   7.907  1.00  0.00     0.052 H 
ATOM     57  CG  ASP C   4       2.987  21.305   9.574  1.00  0.00     0.174 C 
ATOM     58  OD1 ASP C   4       3.038  20.875  10.748  1.00  0.00    -0.648 OA
ATOM     59  OD2 ASP C   4       2.569  22.452   9.253  1.00  0.00    -0.648 OA
ATOM     60  N   GLU C   5       6.204  18.550   7.811  1.00  0.00    -0.346 N 
ATOM     61  H   GLU C   5       5.610  17.867   7.041  1.00  0.00     0.163 HD
ATOM     62  CA  GLU C   5       7.657  18.575   7.700  1.00  0.00     0.090 C 
ATOM     63  HA  GLU C   5       8.236  18.869   8.700  1.00  0.00     0.087 H 
ATOM     64  C   GLU C   5       8.111  19.731   6.818  1.00  0.00     0.241 C 
ATOM     65  O   GLU C   5       9.264  20.168   6.899  1.00  0.00    -0.271 OA
ATOM     66  CB  GLU C   5       8.172  17.271   7.086  1.00  0.00    -0.029 C 
ATOM     67  HB2 GLU C   5       7.323  16.428   7.100  1.00  0.00     0.037 H 
ATOM     68  HB3 GLU C   5       8.925  16.975   7.971  1.00  0.00     0.037 H 
ATOM     69  CG  GLU C   5       9.026  16.748   5.921  1.00  0.00     0.018 C 
ATOM     70  HG2 GLU C   5      10.016  17.373   5.687  1.00  0.00     0.049 H 
ATOM     71  HG3 GLU C   5       8.452  16.532   4.892  1.00  0.00     0.049 H 
ATOM     72  CD  GLU C   5       9.583  15.341   6.268  1.00  0.00     0.172 C 
ATOM     73  OE1 GLU C   5      10.825  15.266   6.423  1.00  0.00    -0.648 OA
ATOM     74  OE2 GLU C   5       8.855  14.314   6.230  1.00  0.00    -0.648 OA
ATOM     75  N   VAL C   6       7.212  20.231   5.973  1.00  0.00    -0.346 N 
ATOM     76  H   VAL C   6       6.179  19.761   5.627  1.00  0.00     0.163 HD
ATOM     77  CA  VAL C   6       7.527  21.351   5.093  1.00  0.00     0.092 C 
ATOM     78  HA  VAL C   6       8.538  21.810   5.524  1.00  0.00     0.088 H 
ATOM     79  C   VAL C   6       6.507  22.471   5.259  1.00  0.00     0.241 C 
ATOM     80  O   VAL C   6       5.335  22.214   5.551  1.00  0.00    -0.271 OA
ATOM     81  CB  VAL C   6       7.514  20.905   3.629  1.00  0.00    -0.033 C 
ATOM     82  HB  VAL C   6       8.652  21.241   3.453  1.00  0.00     0.042 H 
ATOM     83  CG1 VAL C   6       7.032  21.884   2.562  1.00  0.00    -0.071 C 
ATOM     84 1HG1 VAL C   6       7.430  21.498   1.495  1.00  0.00     0.028 H 
ATOM     85 2HG1 VAL C   6       7.462  22.997   2.474  1.00  0.00     0.028 H 
ATOM     86 3HG1 VAL C   6       5.843  21.810   2.418  1.00  0.00     0.028 H 
ATOM     87  CG2 VAL C   6       7.859  19.487   3.157  1.00  0.00    -0.071 C 
ATOM     88 1HG2 VAL C   6       8.216  19.367   2.016  1.00  0.00     0.028 H 
ATOM     89 2HG2 VAL C   6       6.853  18.837   3.116  1.00  0.00     0.028 H 
ATOM     90 3HG2 VAL C   6       8.718  18.863   3.696  1.00  0.00     0.028 H 
ATOM     91  N   PHE C   7       6.950  23.713   5.074  1.00  0.00    -0.346 N 
ATOM     92  H   PHE C   7       8.083  24.043   5.010  1.00  0.00     0.163 HD
ATOM     93  CA  PHE C   7       6.065  24.866   5.186  1.00  0.00     0.093 C 
ATOM     94  HA  PHE C   7       5.171  24.617   5.935  1.00  0.00     0.088 H 
ATOM     95  C   PHE C   7       5.376  25.149   3.857  1.00  0.00     0.241 C 
ATOM     96  O   PHE C   7       5.526  24.385   2.898  1.00  0.00    -0.271 OA
ATOM     97  CB  PHE C   7       6.855  26.113   5.592  1.00  0.00    -0.014 C 
ATOM     98  HB2 PHE C   7       8.029  26.309   5.795  1.00  0.00     0.043 H 
ATOM     99  HB3 PHE C   7       6.715  25.968   6.775  1.00  0.00     0.043 H 
ATOM    100  CG  PHE C   7       6.867  27.420   4.798  1.00  0.00    -0.056 A 
ATOM    101  CD1 PHE C   7       7.235  27.466   3.448  1.00  0.00    -0.077 A 
ATOM    102  HD1 PHE C   7       8.198  26.811   3.205  1.00  0.00     0.084 H 
ATOM    103  CE1 PHE C   7       7.285  28.688   2.735  1.00  0.00    -0.082 A 
ATOM    104  HE1 PHE C   7       8.028  28.869   1.824  1.00  0.00     0.083 H 
ATOM    105  CZ  PHE C   7       6.955  29.884   3.374  1.00  0.00    -0.083 A 
ATOM    106  HZ  PHE C   7       7.050  30.945   2.848  1.00  0.00     0.083 H 
ATOM    107  CE2 PHE C   7       6.628  29.862   4.727  1.00  0.00    -0.082 A 
ATOM    108  HE2 PHE C   7       6.790  30.883   5.313  1.00  0.00     0.083 H 
ATOM    109  CD2 PHE C   7       6.529  28.636   5.422  1.00  0.00    -0.077 A 
ATOM    110  HD2 PHE C   7       6.322  28.778   6.583  1.00  0.00     0.084 H 
ATOM    111  N   TYR C   8       4.620  26.244   3.793  1.00  0.00    -0.346 N 
ATOM    112  H   TYR C   8       3.941  26.372   4.760  1.00  0.00     0.163 HD
ATOM    113  CA  TYR C   8       3.916  26.633   2.546  1.00  0.00     0.093 C 
ATOM    114  HA  TYR C   8       3.033  25.831   2.492  1.00  0.00     0.088 H 
ATOM    115  C   TYR C   8       4.909  26.665   1.367  1.00  0.00     0.241 C 
ATOM    116  O   TYR C   8       6.025  27.178   1.500  1.00  0.00    -0.271 OA
ATOM    117  CB  TYR C   8       3.288  28.020   2.694  1.00  0.00    -0.017 C 
ATOM    118  HB2 TYR C   8       3.963  28.939   2.327  1.00  0.00     0.043 H 
ATOM    119  HB3 TYR C   8       2.421  28.065   1.860  1.00  0.00     0.043 H 
ATOM    120  CG  TYR C   8       2.568  28.439   3.946  1.00  0.00    -0.069 A 
ATOM    121  CD1 TYR C   8       1.349  27.856   4.353  1.00  0.00    -0.077 A 
ATOM    122  HD1 TYR C   8       0.528  27.275   3.721  1.00  0.00     0.084 H 
ATOM    123  CE1 TYR C   8       0.840  28.157   5.623  1.00  0.00    -0.051 A 
ATOM    124  HE1 TYR C   8      -0.219  27.787   6.013  1.00  0.00     0.087 H 
ATOM    125  CZ  TYR C   8       1.543  29.041   6.479  1.00  0.00     0.062 A 
ATOM    126  OH  TYR C   8       1.134  29.253   7.745  1.00  0.00    -0.361 OA
ATOM    127  HH  TYR C   8       1.080  30.415   7.971  1.00  0.00     0.217 HD
ATOM    128  CE2 TYR C   8       2.699  29.712   6.014  1.00  0.00    -0.062 A 
ATOM    129  HE2 TYR C   8       3.278  30.531   6.649  1.00  0.00     0.082 H 
ATOM    130  CD2 TYR C   8       3.168  29.436   4.727  1.00  0.00    -0.003 A 
ATOM    131  HD2 TYR C   8       3.362  30.487   4.205  1.00  0.00     0.054 H 
ATOM    132  N   LYS C   9       4.546  26.132   0.205  1.00  0.00    -0.345 N 
ATOM    133  H   LYS C   9       3.482  25.604   0.134  1.00  0.00     0.163 HD
ATOM    134  CA  LYS C   9       5.446  26.214  -0.946  1.00  0.00     0.096 C 
ATOM    135  HA  LYS C   9       6.583  26.018  -0.650  1.00  0.00     0.089 H 
ATOM    136  C   LYS C   9       5.417  27.680  -1.532  1.00  0.00     0.196 C 
ATOM    137  O   LYS C   9       4.546  28.498  -1.140  1.00  0.00    -0.646 OA
ATOM    138  CB  LYS C   9       5.010  25.222  -2.159  1.00  0.00    -0.037 C 
ATOM    139  HB2 LYS C   9       5.192  25.821  -3.178  1.00  0.00     0.036 H 
ATOM    140  HB3 LYS C   9       3.822  25.203  -2.086  1.00  0.00     0.036 H 
ATOM    141  CG  LYS C   9       5.775  23.926  -2.411  1.00  0.00    -0.061 C 
ATOM    142  HG2 LYS C   9       6.933  24.132  -2.623  1.00  0.00     0.033 H 
ATOM    143  HG3 LYS C   9       5.698  23.243  -1.432  1.00  0.00     0.033 H 
ATOM    144  CD  LYS C   9       4.968  23.422  -3.596  1.00  0.00    -0.043 C 
ATOM    145  HD2 LYS C   9       3.889  23.049  -3.212  1.00  0.00     0.035 H 
ATOM    146  HD3 LYS C   9       4.606  24.122  -4.498  1.00  0.00     0.035 H 
ATOM    147  CE  LYS C   9       5.566  22.130  -4.143  1.00  0.00     0.080 C 
ATOM    148  HE2 LYS C   9       6.152  21.403  -3.390  1.00  0.00     0.075 H 
ATOM    149  HE3 LYS C   9       4.705  21.371  -4.495  1.00  0.00     0.075 H 
ATOM    150  NZ  LYS C   9       6.366  22.529  -5.296  1.00  0.00    -0.079 N 
ATOM    151  HZ1 LYS C   9       6.899  21.553  -5.761  1.00  0.00     0.274 HD
ATOM    152  HZ2 LYS C   9       7.302  23.268  -5.144  1.00  0.00     0.274 HD
ATOM    153  HZ3 LYS C   9       5.787  22.949  -6.263  1.00  0.00     0.274 HD
ATOM    154  OXT LYS C   9       6.308  27.951  -2.399  1.00  0.00    -0.646 OA
ENDROOT
TORSDOF 42
