REMARK  0 active torsions:
REMARK  status: ('A' for Active; 'I' for Inactive)
REMARK       I    between atoms: N_1  and  CA_5 
REMARK       I    between atoms: CA_5  and  CB_9 
REMARK       I    between atoms: CA_5  and  C_7 
REMARK       I    between atoms: C_7  and  N_14 
REMARK       I    between atoms: CB_9  and  OG_12 
REMARK       I    between atoms: N_14  and  CA_16 
REMARK       I    between atoms: CA_16  and  CB_20 
REMARK       I    between atoms: CA_16  and  C_18 
REMARK       I    between atoms: C_18  and  N_28 
REMARK       I    between atoms: CB_20  and  CG2_22 
REMARK       I    between atoms: CB_20  and  OG1_26 
REMARK       I    between atoms: N_28  and  CA_30 
REMARK       I    between atoms: CA_30  and  C_32 
REMARK       I    between atoms: CA_30  and  CB_34 
REMARK       I    between atoms: C_32  and  N_48 
REMARK       I    between atoms: CB_34  and  CG_37 
REMARK       I    between atoms: N_48  and  CA_50 
REMARK       I    between atoms: CA_50  and  CB_54 
REMARK       I    between atoms: CA_50  and  C_52 
REMARK       I    between atoms: C_52  and  N_60 
REMARK       I    between atoms: CB_54  and  CG_57 
REMARK       I    between atoms: N_60  and  CA_62 
REMARK       I    between atoms: CA_62  and  C_64 
REMARK       I    between atoms: CA_62  and  CB_66 
REMARK       I    between atoms: C_64  and  N_75 
REMARK       I    between atoms: CB_66  and  CG_69 
REMARK       I    between atoms: CG_69  and  CD_72 
REMARK       I    between atoms: N_75  and  CA_77 
REMARK       I    between atoms: CA_77  and  C_79 
REMARK       I    between atoms: CA_77  and  CB_81 
REMARK       I    between atoms: C_79  and  N_91 
REMARK       I    between atoms: CB_81  and  CG2_87 
REMARK       I    between atoms: CB_81  and  CG1_83 
REMARK       I    between atoms: N_91  and  CA_93 
REMARK       I    between atoms: CA_93  and  CB_97 
REMARK       I    between atoms: CA_93  and  C_95 
REMARK       I    between atoms: C_95  and  N_111 
REMARK       I    between atoms: CB_97  and  CG_100 
REMARK       I    between atoms: N_111  and  CA_113 
REMARK       I    between atoms: CA_113  and  CB_117 
REMARK       I    between atoms: CA_113  and  C_115 
REMARK       I    between atoms: C_115  and  N_132 
REMARK       I    between atoms: CB_117  and  CG_120 
REMARK       I    between atoms: CZ_125  and  OH_126 
REMARK       I    between atoms: N_132  and  CA_134 
REMARK       I    between atoms: CA_134  and  CB_138 
REMARK       I    between atoms: CA_134  and  C_136 
REMARK       I    between atoms: CB_138  and  CG_141 
REMARK       I    between atoms: CG_141  and  CD_144 
REMARK       I    between atoms: CD_144  and  CE_147 
REMARK       I    between atoms: CE_147  and  NZ_150 
ROOT
ATOM      1  N   SER C   1       3.569  10.245  15.174  1.00  0.00    -0.064 N 
ATOM      2  H   SER C   1       3.378   9.450  16.052  1.00  0.00     0.275 HD
ATOM      3  H2  SER C   1       4.706  10.045  14.851  1.00  0.00     0.275 HD
ATOM      4  H3  SER C   1       2.971   9.721  14.275  1.00  0.00     0.275 HD
ATOM      5  CA  SER C   1       3.063  11.615  15.582  1.00  0.00     0.195 C 
ATOM      6  HA  SER C   1       1.932  11.454  15.935  1.00  0.00     0.102 H 
ATOM      7  C   SER C   1       3.501  12.536  14.439  1.00  0.00     0.251 C 
ATOM      8  O   SER C   1       4.647  12.524  13.986  1.00  0.00    -0.271 OA
ATOM      9  CB  SER C   1       3.799  12.126  16.857  1.00  0.00     0.051 C 
ATOM     10  HB2 SER C   1       3.798  13.286  17.140  1.00  0.00     0.077 H 
ATOM     11  HB3 SER C   1       3.284  11.629  17.820  1.00  0.00     0.077 H 
ATOM     12  OG  SER C   1       5.101  11.595  17.003  1.00  0.00    -0.398 OA
ATOM     13  HG  SER C   1       5.713  12.212  17.813  1.00  0.00     0.209 HD
ATOM     14  N   THR C   2       2.960  12.717  14.176  1.00  0.00    -0.344 N 
ATOM     15  H   THR C   2       2.124  12.068  13.586  1.00  0.00     0.163 HD
ATOM     16  CA  THR C   2       2.591  14.043  13.651  1.00  0.00     0.113 C 
ATOM     17  HA  THR C   2       2.277  13.777  12.528  1.00  0.00     0.091 H 
ATOM     18  C   THR C   2       3.814  14.909  13.436  1.00  0.00     0.243 C 
ATOM     19  O   THR C   2       4.844  14.714  14.089  1.00  0.00    -0.271 OA
ATOM     20  CB  THR C   2       1.665  14.770  14.628  1.00  0.00     0.060 C 
ATOM     21  HB  THR C   2       1.112  14.098  15.447  1.00  0.00     0.086 H 
ATOM     22  CG2 THR C   2       0.511  15.156  13.710  1.00  0.00    -0.050 C 
ATOM     23 1HG2 THR C   2       0.175  16.290  13.918  1.00  0.00     0.031 H 
ATOM     24 2HG2 THR C   2       0.363  15.091  12.519  1.00  0.00     0.031 H 
ATOM     25 3HG2 THR C   2      -0.481  14.554  14.029  1.00  0.00     0.031 H 
ATOM     26  OG1 THR C   2       2.133  15.901  15.315  1.00  0.00    -0.393 OA
ATOM     27  HG1 THR C   2       2.044  15.729  16.494  1.00  0.00     0.210 HD
ATOM     28  N   PHE C   3       3.715  15.872  12.520  1.00  0.00    -0.346 N 
ATOM     29  H   PHE C   3       3.026  15.673  11.572  1.00  0.00     0.163 HD
ATOM     30  CA  PHE C   3       4.821  16.779  12.241  1.00  0.00     0.093 C 
ATOM     31  HA  PHE C   3       5.853  16.287  12.585  1.00  0.00     0.088 H 
ATOM     32  C   PHE C   3       4.635  18.099  12.979  1.00  0.00     0.241 C 
ATOM     33  O   PHE C   3       5.554  18.575  13.654  1.00  0.00    -0.271 OA
ATOM     34  CB  PHE C   3       4.908  17.076  10.742  1.00  0.00    -0.014 C 
ATOM     35  HB2 PHE C   3       3.955  17.346  10.073  1.00  0.00     0.043 H 
ATOM     36  HB3 PHE C   3       5.346  16.088  10.224  1.00  0.00     0.043 H 
ATOM     37  CG  PHE C   3       5.918  18.129  10.417  1.00  0.00    -0.056 A 
ATOM     38  CD1 PHE C   3       6.675  18.630  11.466  1.00  0.00    -0.077 A 
ATOM     39  HD1 PHE C   3       6.800  19.447  12.320  1.00  0.00     0.084 H 
ATOM     40  CE1 PHE C   3       8.035  18.605  11.221  1.00  0.00    -0.082 A 
ATOM     41  HE1 PHE C   3       8.915  18.372  11.986  1.00  0.00     0.083 H 
ATOM     42  CZ  PHE C   3       8.411  18.482   9.873  1.00  0.00    -0.083 A 
ATOM     43  HZ  PHE C   3       9.439  17.974   9.559  1.00  0.00     0.083 H 
ATOM     44  CE2 PHE C   3       7.501  18.828   8.861  1.00  0.00    -0.082 A 
ATOM     45  HE2 PHE C   3       7.912  18.932   7.752  1.00  0.00     0.083 H 
ATOM     46  CD2 PHE C   3       6.150  18.577   9.107  1.00  0.00    -0.077 A 
ATOM     47  HD2 PHE C   3       5.477  18.428   8.139  1.00  0.00     0.084 H 
ATOM     48  N   ASP C   4       3.451  18.696  12.856  1.00  0.00    -0.345 N 
ATOM     49  H   ASP C   4       2.459  18.347  12.298  1.00  0.00     0.163 HD
ATOM     50  CA  ASP C   4       3.152  19.952  13.532  1.00  0.00     0.098 C 
ATOM     51  HA  ASP C   4       2.011  20.303  13.479  1.00  0.00     0.088 H 
ATOM     52  C   ASP C   4       3.912  21.105  12.889  1.00  0.00     0.241 C 
ATOM     53  O   ASP C   4       4.452  21.968  13.588  1.00  0.00    -0.271 OA
ATOM     54  CB  ASP C   4       3.552  19.877  15.007  1.00  0.00     0.043 C 
ATOM     55  HB2 ASP C   4       4.468  20.459  15.509  1.00  0.00     0.052 H 
ATOM     56  HB3 ASP C   4       2.633  20.247  15.679  1.00  0.00     0.052 H 
ATOM     57  CG  ASP C   4       3.732  18.436  15.481  1.00  0.00     0.175 C 
ATOM     58  OD1 ASP C   4       3.433  17.574  14.662  1.00  0.00    -0.648 OA
ATOM     59  OD2 ASP C   4       4.161  18.232  16.647  1.00  0.00    -0.648 OA
ATOM     60  N   GLU C   5       3.958  21.126  11.557  1.00  0.00    -0.346 N 
ATOM     61  H   GLU C   5       3.028  20.673  10.973  1.00  0.00     0.163 HD
ATOM     62  CA  GLU C   5       4.639  22.191  10.832  1.00  0.00     0.090 C 
ATOM     63  HA  GLU C   5       4.268  23.038  11.585  1.00  0.00     0.087 H 
ATOM     64  C   GLU C   5       3.769  22.711   9.694  1.00  0.00     0.241 C 
ATOM     65  O   GLU C   5       3.405  21.956   8.787  1.00  0.00    -0.271 OA
ATOM     66  CB  GLU C   5       5.953  21.679  10.236  1.00  0.00    -0.029 C 
ATOM     67  HB2 GLU C   5       6.074  22.169   9.152  1.00  0.00     0.037 H 
ATOM     68  HB3 GLU C   5       6.800  20.852  10.123  1.00  0.00     0.037 H 
ATOM     69  CG  GLU C   5       6.539  22.516  11.378  1.00  0.00     0.018 C 
ATOM     70  HG2 GLU C   5       6.281  23.652  11.671  1.00  0.00     0.049 H 
ATOM     71  HG3 GLU C   5       6.710  21.989  12.439  1.00  0.00     0.049 H 
ATOM     72  CD  GLU C   5       7.945  23.082  11.274  1.00  0.00     0.172 C 
ATOM     73  OE1 GLU C   5       8.784  22.414  11.865  1.00  0.00    -0.648 OA
ATOM     74  OE2 GLU C   5       8.188  24.086  10.567  1.00  0.00    -0.648 OA
ATOM     75  N   VAL C   6       3.432  23.999   9.736  1.00  0.00    -0.346 N 
ATOM     76  H   VAL C   6       4.113  24.849  10.220  1.00  0.00     0.163 HD
ATOM     77  CA  VAL C   6       2.619  24.612   8.692  1.00  0.00     0.092 C 
ATOM     78  HA  VAL C   6       1.911  23.793   8.186  1.00  0.00     0.088 H 
ATOM     79  C   VAL C   6       3.501  25.242   7.621  1.00  0.00     0.241 C 
ATOM     80  O   VAL C   6       3.564  26.470   7.503  1.00  0.00    -0.271 OA
ATOM     81  CB  VAL C   6       1.724  25.705   9.280  1.00  0.00    -0.033 C 
ATOM     82  HB  VAL C   6       0.730  25.382   8.693  1.00  0.00     0.042 H 
ATOM     83  CG1 VAL C   6       1.111  25.616  10.685  1.00  0.00    -0.071 C 
ATOM     84 1HG1 VAL C   6       1.189  26.608  11.357  1.00  0.00     0.028 H 
ATOM     85 2HG1 VAL C   6       1.519  24.801  11.462  1.00  0.00     0.028 H 
ATOM     86 3HG1 VAL C   6      -0.064  25.369  10.714  1.00  0.00     0.028 H 
ATOM     87  CG2 VAL C   6       1.658  27.119   8.706  1.00  0.00    -0.071 C 
ATOM     88 1HG2 VAL C   6       2.378  27.764   9.420  1.00  0.00     0.028 H 
ATOM     89 2HG2 VAL C   6       1.873  27.635   7.647  1.00  0.00     0.028 H 
ATOM     90 3HG2 VAL C   6       0.565  27.583   8.895  1.00  0.00     0.028 H 
ATOM     91  N   PHE C   7       4.182  24.404   6.841  1.00  0.00    -0.346 N 
ATOM     92  H   PHE C   7       3.724  23.316   6.639  1.00  0.00     0.163 HD
ATOM     93  CA  PHE C   7       5.044  24.886   5.769  1.00  0.00     0.093 C 
ATOM     94  HA  PHE C   7       5.558  25.876   6.195  1.00  0.00     0.088 H 
ATOM     95  C   PHE C   7       4.229  25.199   4.521  1.00  0.00     0.241 C 
ATOM     96  O   PHE C   7       3.255  24.503   4.217  1.00  0.00    -0.271 OA
ATOM     97  CB  PHE C   7       6.092  23.832   5.406  1.00  0.00    -0.014 C 
ATOM     98  HB2 PHE C   7       5.416  22.856   5.288  1.00  0.00     0.043 H 
ATOM     99  HB3 PHE C   7       6.966  24.321   6.060  1.00  0.00     0.043 H 
ATOM    100  CG  PHE C   7       7.087  23.093   4.543  1.00  0.00    -0.056 A 
ATOM    101  CD1 PHE C   7       7.139  23.032   3.151  1.00  0.00    -0.077 A 
ATOM    102  HD1 PHE C   7       6.259  23.262   2.389  1.00  0.00     0.084 H 
ATOM    103  CE1 PHE C   7       8.132  22.235   2.568  1.00  0.00    -0.082 A 
ATOM    104  HE1 PHE C   7       8.515  22.362   1.453  1.00  0.00     0.083 H 
ATOM    105  CZ  PHE C   7       8.899  21.350   3.335  1.00  0.00    -0.083 A 
ATOM    106  HZ  PHE C   7       9.750  20.694   2.829  1.00  0.00     0.083 H 
ATOM    107  CE2 PHE C   7       8.691  21.265   4.717  1.00  0.00    -0.082 A 
ATOM    108  HE2 PHE C   7       9.115  20.289   5.243  1.00  0.00     0.083 H 
ATOM    109  CD2 PHE C   7       7.997  22.320   5.302  1.00  0.00    -0.077 A 
ATOM    110  HD2 PHE C   7       8.662  22.652   6.229  1.00  0.00     0.084 H 
ATOM    111  N   TYR C   8       4.620  26.244   3.793  1.00  0.00    -0.346 N 
ATOM    112  H   TYR C   8       5.608  26.865   4.022  1.00  0.00     0.163 HD
ATOM    113  CA  TYR C   8       3.916  26.633   2.546  1.00  0.00     0.093 C 
ATOM    114  HA  TYR C   8       3.010  25.889   2.335  1.00  0.00     0.088 H 
ATOM    115  C   TYR C   8       4.909  26.665   1.367  1.00  0.00     0.241 C 
ATOM    116  O   TYR C   8       6.025  27.178   1.500  1.00  0.00    -0.271 OA
ATOM    117  CB  TYR C   8       3.288  28.020   2.694  1.00  0.00    -0.014 C 
ATOM    118  HB2 TYR C   8       3.282  28.581   1.635  1.00  0.00     0.043 H 
ATOM    119  HB3 TYR C   8       4.027  28.713   3.337  1.00  0.00     0.043 H 
ATOM    120  CG  TYR C   8       1.900  28.428   3.076  1.00  0.00    -0.059 A 
ATOM    121  CD1 TYR C   8       0.779  28.376   2.249  1.00  0.00    -0.075 A 
ATOM    122  HD1 TYR C   8       0.588  28.957   1.231  1.00  0.00     0.084 H 
ATOM    123  CE1 TYR C   8      -0.357  27.891   2.905  1.00  0.00    -0.054 A 
ATOM    124  HE1 TYR C   8      -1.270  27.423   2.308  1.00  0.00     0.087 H 
ATOM    125  CZ  TYR C   8      -0.365  27.921   4.318  1.00  0.00     0.052 A 
ATOM    126  OH  TYR C   8      -1.535  27.679   4.962  1.00  0.00    -0.364 OA
ATOM    127  HH  TYR C   8      -1.506  28.083   6.075  1.00  0.00     0.217 HD
ATOM    128  CE2 TYR C   8       0.785  28.201   5.075  1.00  0.00     0.021 A 
ATOM    129  HE2 TYR C   8       0.599  28.862   6.044  1.00  0.00     0.058 H 
ATOM    130  CD2 TYR C   8       1.755  28.898   4.376  1.00  0.00    -0.086 A 
ATOM    131  HD2 TYR C   8       2.070  30.017   4.631  1.00  0.00     0.079 H 
ATOM    132  N   LYS C   9       4.546  26.132   0.205  1.00  0.00    -0.345 N 
ATOM    133  H   LYS C   9       3.417  25.829  -0.013  1.00  0.00     0.163 HD
ATOM    134  CA  LYS C   9       5.446  26.214  -0.946  1.00  0.00     0.096 C 
ATOM    135  HA  LYS C   9       6.557  26.364  -0.547  1.00  0.00     0.089 H 
ATOM    136  C   LYS C   9       5.417  27.680  -1.532  1.00  0.00     0.196 C 
ATOM    137  O   LYS C   9       4.546  28.498  -1.140  1.00  0.00    -0.646 OA
ATOM    138  CB  LYS C   9       5.010  25.222  -2.159  1.00  0.00    -0.037 C 
ATOM    139  HB2 LYS C   9       4.421  25.819  -3.012  1.00  0.00     0.036 H 
ATOM    140  HB3 LYS C   9       4.123  24.519  -1.769  1.00  0.00     0.036 H 
ATOM    141  CG  LYS C   9       6.031  24.262  -2.728  1.00  0.00    -0.061 C 
ATOM    142  HG2 LYS C   9       5.815  24.427  -3.893  1.00  0.00     0.033 H 
ATOM    143  HG3 LYS C   9       5.642  23.144  -2.539  1.00  0.00     0.033 H 
ATOM    144  CD  LYS C   9       7.377  24.483  -2.066  1.00  0.00    -0.043 C 
ATOM    145  HD2 LYS C   9       7.419  24.226  -0.899  1.00  0.00     0.035 H 
ATOM    146  HD3 LYS C   9       7.952  25.505  -2.301  1.00  0.00     0.035 H 
ATOM    147  CE  LYS C   9       8.280  23.394  -2.602  1.00  0.00     0.080 C 
ATOM    148  HE2 LYS C   9       9.407  23.534  -2.219  1.00  0.00     0.075 H 
ATOM    149  HE3 LYS C   9       8.067  22.274  -2.235  1.00  0.00     0.075 H 
ATOM    150  NZ  LYS C   9       8.169  23.562  -4.051  1.00  0.00    -0.079 N 
ATOM    151  HZ1 LYS C   9       7.995  24.521  -4.751  1.00  0.00     0.274 HD
ATOM    152  HZ2 LYS C   9       7.584  22.653  -4.576  1.00  0.00     0.274 HD
ATOM    153  HZ3 LYS C   9       9.282  23.326  -4.445  1.00  0.00     0.274 HD
ATOM    154  OXT LYS C   9       5.640  27.760  -2.756  1.00  0.00    -0.646 OA
ENDROOT
TORSDOF 43
