REMARK  0 active torsions:
REMARK  status: ('A' for Active; 'I' for Inactive)
REMARK       I    between atoms: N_1  and  CA_5 
REMARK       I    between atoms: CA_5  and  C_7 
REMARK       I    between atoms: CA_5  and  CB_9 
REMARK       I    between atoms: C_7  and  N_14 
REMARK       I    between atoms: CB_9  and  OG_12 
REMARK       I    between atoms: N_14  and  CA_16 
REMARK       I    between atoms: CA_16  and  CB_20 
REMARK       I    between atoms: CA_16  and  C_18 
REMARK       I    between atoms: C_18  and  N_28 
REMARK       I    between atoms: CB_20  and  OG1_26 
REMARK       I    between atoms: CB_20  and  CG2_22 
REMARK       I    between atoms: N_28  and  CA_30 
REMARK       I    between atoms: CA_30  and  CB_34 
REMARK       I    between atoms: CA_30  and  C_32 
REMARK       I    between atoms: C_32  and  N_48 
REMARK       I    between atoms: CB_34  and  CG_37 
REMARK       I    between atoms: N_48  and  CA_50 
REMARK       I    between atoms: CA_50  and  CB_54 
REMARK       I    between atoms: CA_50  and  C_52 
REMARK       I    between atoms: C_52  and  N_60 
REMARK       I    between atoms: CB_54  and  CG_57 
REMARK       I    between atoms: N_60  and  CA_62 
REMARK       I    between atoms: CA_62  and  C_64 
REMARK       I    between atoms: CA_62  and  CB_66 
REMARK       I    between atoms: C_64  and  N_75 
REMARK       I    between atoms: CB_66  and  CG_69 
REMARK       I    between atoms: CG_69  and  CD_72 
REMARK       I    between atoms: N_75  and  CA_77 
REMARK       I    between atoms: CA_77  and  CB_81 
REMARK       I    between atoms: CA_77  and  C_79 
REMARK       I    between atoms: C_79  and  N_91 
REMARK       I    between atoms: CB_81  and  CG2_87 
REMARK       I    between atoms: CB_81  and  CG1_83 
REMARK       I    between atoms: N_91  and  CA_93 
REMARK       I    between atoms: CA_93  and  C_95 
REMARK       I    between atoms: CA_93  and  CB_97 
REMARK       I    between atoms: C_95  and  N_111 
REMARK       I    between atoms: CB_97  and  CG_100 
REMARK       I    between atoms: N_111  and  CA_113 
REMARK       I    between atoms: CA_113  and  CB_117 
REMARK       I    between atoms: CA_113  and  C_115 
REMARK       I    between atoms: N_132  and  C_115 
REMARK       I    between atoms: CB_117  and  CG_120 
REMARK       I    between atoms: CZ_125  and  OH_126 
REMARK       I    between atoms: N_132  and  CA_134 
REMARK       I    between atoms: CA_134  and  CB_138 
REMARK       I    between atoms: CA_134  and  C_136 
REMARK       I    between atoms: CB_138  and  CG_141 
REMARK       I    between atoms: CG_141  and  CD_144 
REMARK       I    between atoms: CD_144  and  CE_147 
REMARK       I    between atoms: CE_147  and  NZ_150 
ROOT
ATOM      1  N   SER C   1       3.569  10.245  15.174  1.00  0.00    -0.064 N 
ATOM      2  H   SER C   1       3.026   9.908  14.162  1.00  0.00     0.275 HD
ATOM      3  H2  SER C   1       4.733  10.039  14.980  1.00  0.00     0.275 HD
ATOM      4  H3  SER C   1       3.262   9.373  15.937  1.00  0.00     0.275 HD
ATOM      5  CA  SER C   1       3.063  11.615  15.582  1.00  0.00     0.195 C 
ATOM      6  HA  SER C   1       1.902  11.477  15.818  1.00  0.00     0.102 H 
ATOM      7  C   SER C   1       3.501  12.536  14.439  1.00  0.00     0.251 C 
ATOM      8  O   SER C   1       4.647  12.524  13.986  1.00  0.00    -0.271 OA
ATOM      9  CB  SER C   1       3.799  12.126  16.857  1.00  0.00     0.051 C 
ATOM     10  HB2 SER C   1       4.933  12.461  16.691  1.00  0.00     0.077 H 
ATOM     11  HB3 SER C   1       3.228  13.059  17.333  1.00  0.00     0.077 H 
ATOM     12  OG  SER C   1       3.740  11.223  17.947  1.00  0.00    -0.398 OA
ATOM     13  HG  SER C   1       4.583  11.468  18.746  1.00  0.00     0.209 HD
ATOM     14  N   THR C   2       2.645  13.462  14.123  1.00  0.00    -0.344 N 
ATOM     15  H   THR C   2       1.800  13.809  14.884  1.00  0.00     0.163 HD
ATOM     16  CA  THR C   2       2.846  14.378  12.987  1.00  0.00     0.113 C 
ATOM     17  HA  THR C   2       3.324  13.644  12.177  1.00  0.00     0.091 H 
ATOM     18  C   THR C   2       3.766  15.521  13.358  1.00  0.00     0.243 C 
ATOM     19  O   THR C   2       3.873  15.884  14.534  1.00  0.00    -0.271 OA
ATOM     20  CB  THR C   2       1.511  14.974  12.535  1.00  0.00     0.060 C 
ATOM     21  HB  THR C   2       1.596  14.656  11.380  1.00  0.00     0.086 H 
ATOM     22  CG2 THR C   2       1.339  16.464  12.225  1.00  0.00    -0.050 C 
ATOM     23 1HG2 THR C   2       1.763  16.921  11.202  1.00  0.00     0.031 H 
ATOM     24 2HG2 THR C   2       1.391  16.998  13.296  1.00  0.00     0.031 H 
ATOM     25 3HG2 THR C   2       0.171  16.645  11.999  1.00  0.00     0.031 H 
ATOM     26  OG1 THR C   2       0.353  14.148  12.516  1.00  0.00    -0.393 OA
ATOM     27  HG1 THR C   2      -0.385  14.454  13.396  1.00  0.00     0.210 HD
ATOM     28  N   PHE C   3       4.439  16.099  12.364  1.00  0.00    -0.346 N 
ATOM     29  H   PHE C   3       4.357  15.705  11.244  1.00  0.00     0.163 HD
ATOM     30  CA  PHE C   3       5.339  17.221  12.598  1.00  0.00     0.093 C 
ATOM     31  HA  PHE C   3       5.565  17.520  13.731  1.00  0.00     0.088 H 
ATOM     32  C   PHE C   3       4.831  18.475  11.898  1.00  0.00     0.241 C 
ATOM     33  O   PHE C   3       5.380  18.885  10.870  1.00  0.00    -0.271 OA
ATOM     34  CB  PHE C   3       6.739  16.907  12.066  1.00  0.00    -0.017 C 
ATOM     35  HB2 PHE C   3       7.227  16.326  12.994  1.00  0.00     0.043 H 
ATOM     36  HB3 PHE C   3       6.661  15.989  11.303  1.00  0.00     0.043 H 
ATOM     37  CG  PHE C   3       7.994  17.525  11.487  1.00  0.00    -0.069 A 
ATOM     38  CD1 PHE C   3       7.986  17.955  10.154  1.00  0.00    -0.005 A 
ATOM     39  HD1 PHE C   3       7.475  17.145   9.451  1.00  0.00     0.054 H 
ATOM     40  CE1 PHE C   3       9.210  18.252   9.513  1.00  0.00    -0.094 A 
ATOM     41  HE1 PHE C   3       9.585  17.753   8.500  1.00  0.00     0.077 H 
ATOM     42  CZ  PHE C   3      10.380  18.340  10.278  1.00  0.00    -0.086 A 
ATOM     43  HZ  PHE C   3      11.368  18.839   9.847  1.00  0.00     0.083 H 
ATOM     44  CE2 PHE C   3      10.389  17.906  11.604  1.00  0.00    -0.083 A 
ATOM     45  HE2 PHE C   3      11.439  17.644  12.095  1.00  0.00     0.083 H 
ATOM     46  CD2 PHE C   3       9.173  17.616  12.256  1.00  0.00    -0.080 A 
ATOM     47  HD2 PHE C   3       9.367  17.457  13.418  1.00  0.00     0.083 H 
ATOM     48  N   ASP C   4       3.784  19.088  12.447  1.00  0.00    -0.346 N 
ATOM     49  H   ASP C   4       3.352  18.534  13.402  1.00  0.00     0.163 HD
ATOM     50  CA  ASP C   4       3.224  20.307  11.876  1.00  0.00     0.093 C 
ATOM     51  HA  ASP C   4       2.927  20.186  10.727  1.00  0.00     0.087 H 
ATOM     52  C   ASP C   4       4.197  21.470  12.027  1.00  0.00     0.221 C 
ATOM     53  O   ASP C   4       3.846  22.621  11.751  1.00  0.00    -0.278 OA
ATOM     54  CB  ASP C   4       1.918  20.680  12.580  1.00  0.00     0.042 C 
ATOM     55  HB2 ASP C   4       0.986  20.122  12.084  1.00  0.00     0.052 H 
ATOM     56  HB3 ASP C   4       1.594  21.829  12.499  1.00  0.00     0.052 H 
ATOM     57  CG  ASP C   4       1.698  20.416  14.056  1.00  0.00     0.175 C 
ATOM     58  OD1 ASP C   4       2.737  20.065  14.667  1.00  0.00    -0.648 OA
ATOM     59  OD2 ASP C   4       0.603  20.731  14.569  1.00  0.00    -0.648 OA
ATOM     60  N   GLU C   5       5.421  21.177  12.465  1.00  0.00    -0.248 NA
ATOM     61  H   GLU C   5       5.236  20.839  13.599  1.00  0.00     0.131 HD
ATOM     62  CA  GLU C   5       6.441  22.204  12.630  1.00  0.00     0.076 C 
ATOM     63  HA  GLU C   5       6.022  23.198  13.142  1.00  0.00     0.079 H 
ATOM     64  C   GLU C   5       6.929  22.703  11.275  1.00  0.00     0.236 C 
ATOM     65  O   GLU C   5       7.724  23.645  11.202  1.00  0.00    -0.272 OA
ATOM     66  CB  GLU C   5       7.643  21.650  13.398  1.00  0.00    -0.033 C 
ATOM     67  HB2 GLU C   5       8.568  21.450  12.668  1.00  0.00     0.036 H 
ATOM     68  HB3 GLU C   5       7.487  20.621  13.985  1.00  0.00     0.036 H 
ATOM     69  CG  GLU C   5       8.283  22.506  14.501  1.00  0.00     0.018 C 
ATOM     70  HG2 GLU C   5       8.831  23.505  14.139  1.00  0.00     0.049 H 
ATOM     71  HG3 GLU C   5       7.528  22.881  15.348  1.00  0.00     0.049 H 
ATOM     72  CD  GLU C   5       9.367  21.774  15.307  1.00  0.00     0.172 C 
ATOM     73  OE1 GLU C   5      10.558  21.979  14.995  1.00  0.00    -0.648 OA
ATOM     74  OE2 GLU C   5       9.013  21.273  16.396  1.00  0.00    -0.648 OA
ATOM     75  N   VAL C   6       6.457  22.076  10.199  1.00  0.00    -0.346 N 
ATOM     76  H   VAL C   6       5.412  21.555   9.992  1.00  0.00     0.163 HD
ATOM     77  CA  VAL C   6       6.838  22.478   8.849  1.00  0.00     0.092 C 
ATOM     78  HA  VAL C   6       7.899  23.011   8.982  1.00  0.00     0.088 H 
ATOM     79  C   VAL C   6       5.863  23.510   8.298  1.00  0.00     0.241 C 
ATOM     80  O   VAL C   6       4.697  23.552   8.705  1.00  0.00    -0.271 OA
ATOM     81  CB  VAL C   6       6.841  21.271   7.909  1.00  0.00    -0.033 C 
ATOM     82  HB  VAL C   6       8.003  21.396   7.624  1.00  0.00     0.042 H 
ATOM     83  CG1 VAL C   6       6.400  21.468   6.462  1.00  0.00    -0.071 C 
ATOM     84 1HG1 VAL C   6       5.204  21.522   6.402  1.00  0.00     0.028 H 
ATOM     85 2HG1 VAL C   6       7.064  22.235   5.829  1.00  0.00     0.028 H 
ATOM     86 3HG1 VAL C   6       6.543  20.536   5.706  1.00  0.00     0.028 H 
ATOM     87  CG2 VAL C   6       7.085  19.822   8.347  1.00  0.00    -0.071 C 
ATOM     88 1HG2 VAL C   6       7.680  19.183   7.521  1.00  0.00     0.028 H 
ATOM     89 2HG2 VAL C   6       6.019  19.281   8.311  1.00  0.00     0.028 H 
ATOM     90 3HG2 VAL C   6       7.680  20.005   9.364  1.00  0.00     0.028 H 
ATOM     91  N   PHE C   7       6.335  24.344   7.373  1.00  0.00    -0.346 N 
ATOM     92  H   PHE C   7       7.492  24.467   7.127  1.00  0.00     0.163 HD
ATOM     93  CA  PHE C   7       5.493  25.362   6.757  1.00  0.00     0.093 C 
ATOM     94  HA  PHE C   7       4.436  25.454   7.301  1.00  0.00     0.088 H 
ATOM     95  C   PHE C   7       5.184  25.002   5.309  1.00  0.00     0.241 C 
ATOM     96  O   PHE C   7       5.436  23.873   4.876  1.00  0.00    -0.271 OA
ATOM     97  CB  PHE C   7       6.193  26.722   6.775  1.00  0.00    -0.014 C 
ATOM     98  HB2 PHE C   7       5.576  27.368   7.572  1.00  0.00     0.043 H 
ATOM     99  HB3 PHE C   7       7.287  26.829   7.249  1.00  0.00     0.043 H 
ATOM    100  CG  PHE C   7       6.429  27.554   5.518  1.00  0.00    -0.056 A 
ATOM    101  CD1 PHE C   7       7.107  27.027   4.399  1.00  0.00    -0.077 A 
ATOM    102  HD1 PHE C   7       8.013  26.266   4.518  1.00  0.00     0.084 H 
ATOM    103  CE1 PHE C   7       7.354  27.802   3.263  1.00  0.00    -0.082 A 
ATOM    104  HE1 PHE C   7       8.170  27.501   2.452  1.00  0.00     0.083 H 
ATOM    105  CZ  PHE C   7       6.946  29.144   3.227  1.00  0.00    -0.083 A 
ATOM    106  HZ  PHE C   7       7.330  29.889   2.385  1.00  0.00     0.083 H 
ATOM    107  CE2 PHE C   7       6.275  29.690   4.336  1.00  0.00    -0.082 A 
ATOM    108  HE2 PHE C   7       6.056  30.858   4.338  1.00  0.00     0.083 H 
ATOM    109  CD2 PHE C   7       5.985  28.886   5.443  1.00  0.00    -0.077 A 
ATOM    110  HD2 PHE C   7       5.517  29.553   6.309  1.00  0.00     0.084 H 
ATOM    111  N   TYR C   8       4.638  25.956   4.557  1.00  0.00    -0.346 N 
ATOM    112  H   TYR C   8       3.888  26.750   5.027  1.00  0.00     0.163 HD
ATOM    113  CA  TYR C   8       4.311  25.729   3.127  1.00  0.00     0.093 C 
ATOM    114  HA  TYR C   8       4.966  24.876   2.615  1.00  0.00     0.088 H 
ATOM    115  C   TYR C   8       4.735  26.951   2.288  1.00  0.00     0.241 C 
ATOM    116  O   TYR C   8       4.500  28.097   2.686  1.00  0.00    -0.271 OA
ATOM    117  CB  TYR C   8       2.807  25.510   2.947  1.00  0.00    -0.014 C 
ATOM    118  HB2 TYR C   8       2.223  26.538   2.762  1.00  0.00     0.043 H 
ATOM    119  HB3 TYR C   8       2.560  24.875   1.965  1.00  0.00     0.043 H 
ATOM    120  CG  TYR C   8       1.988  24.669   3.893  1.00  0.00    -0.056 A 
ATOM    121  CD1 TYR C   8       2.143  23.273   3.970  1.00  0.00    -0.074 A 
ATOM    122  HD1 TYR C   8       2.443  22.530   3.092  1.00  0.00     0.084 H 
ATOM    123  CE1 TYR C   8       1.517  22.562   5.012  1.00  0.00    -0.051 A 
ATOM    124  HE1 TYR C   8       1.414  21.379   5.002  1.00  0.00     0.087 H 
ATOM    125  CZ  TYR C   8       0.715  23.257   5.940  1.00  0.00     0.065 A 
ATOM    126  OH  TYR C   8       0.187  22.603   7.014  1.00  0.00    -0.361 OA
ATOM    127  HH  TYR C   8       0.700  22.985   8.011  1.00  0.00     0.217 HD
ATOM    128  CE2 TYR C   8       0.451  24.628   5.778  1.00  0.00    -0.051 A 
ATOM    129  HE2 TYR C   8      -0.427  25.137   6.396  1.00  0.00     0.087 H 
ATOM    130  CD2 TYR C   8       1.064  25.328   4.725  1.00  0.00    -0.074 A 
ATOM    131  HD2 TYR C   8       0.474  26.339   4.509  1.00  0.00     0.084 H 
ATOM    132  N   LYS C   9       4.546  26.132   0.205  1.00  0.00    -0.345 N 
ATOM    133  H   LYS C   9       3.367  26.218   0.062  1.00  0.00     0.163 HD
ATOM    134  CA  LYS C   9       5.446  26.214  -0.946  1.00  0.00     0.096 C 
ATOM    135  HA  LYS C   9       6.554  26.083  -0.531  1.00  0.00     0.089 H 
ATOM    136  C   LYS C   9       5.417  27.680  -1.532  1.00  0.00     0.196 C 
ATOM    137  O   LYS C   9       4.546  28.498  -1.140  1.00  0.00    -0.646 OA
ATOM    138  CB  LYS C   9       5.010  25.222  -2.159  1.00  0.00    -0.037 C 
ATOM    139  HB2 LYS C   9       3.828  25.103  -2.035  1.00  0.00     0.036 H 
ATOM    140  HB3 LYS C   9       5.195  25.916  -3.114  1.00  0.00     0.036 H 
ATOM    141  CG  LYS C   9       5.793  23.923  -2.409  1.00  0.00    -0.061 C 
ATOM    142  HG2 LYS C   9       5.793  23.237  -1.430  1.00  0.00     0.033 H 
ATOM    143  HG3 LYS C   9       6.945  24.142  -2.641  1.00  0.00     0.033 H 
ATOM    144  CD  LYS C   9       4.988  23.397  -3.601  1.00  0.00    -0.043 C 
ATOM    145  HD2 LYS C   9       4.577  24.062  -4.510  1.00  0.00     0.035 H 
ATOM    146  HD3 LYS C   9       3.965  22.977  -3.136  1.00  0.00     0.035 H 
ATOM    147  CE  LYS C   9       5.563  22.116  -4.152  1.00  0.00     0.080 C 
ATOM    148  HE2 LYS C   9       4.708  21.363  -4.524  1.00  0.00     0.075 H 
ATOM    149  HE3 LYS C   9       6.155  21.406  -3.391  1.00  0.00     0.075 H 
ATOM    150  NZ  LYS C   9       6.377  22.510  -5.309  1.00  0.00    -0.079 N 
ATOM    151  HZ1 LYS C   9       7.416  21.910  -5.264  1.00  0.00     0.274 HD
ATOM    152  HZ2 LYS C   9       5.879  22.139  -6.335  1.00  0.00     0.274 HD
ATOM    153  HZ3 LYS C   9       6.753  23.610  -5.601  1.00  0.00     0.274 HD
ATOM    154  OXT LYS C   9       6.230  28.093  -2.366  1.00  0.00    -0.646 OA
ENDROOT
TORSDOF 43
