REMARK  0 active torsions:
REMARK  status: ('A' for Active; 'I' for Inactive)
REMARK       I    between atoms: N_1  and  CA_5 
REMARK       I    between atoms: CA_5  and  C_7 
REMARK       I    between atoms: CA_5  and  CB_9 
REMARK       I    between atoms: C_7  and  N_14 
REMARK       I    between atoms: CB_9  and  OG_12 
REMARK       I    between atoms: N_14  and  CA_16 
REMARK       I    between atoms: CA_16  and  CB_20 
REMARK       I    between atoms: CA_16  and  C_18 
REMARK       I    between atoms: C_18  and  N_28 
REMARK       I    between atoms: CB_20  and  OG1_26 
REMARK       I    between atoms: CB_20  and  CG2_22 
REMARK       I    between atoms: N_28  and  CA_30 
REMARK       I    between atoms: CA_30  and  C_32 
REMARK       I    between atoms: CA_30  and  CB_34 
REMARK       I    between atoms: C_32  and  N_48 
REMARK       I    between atoms: CB_34  and  CG_37 
REMARK       I    between atoms: N_48  and  CA_50 
REMARK       I    between atoms: CA_50  and  CB_54 
REMARK       I    between atoms: CA_50  and  C_52 
REMARK       I    between atoms: C_52  and  N_60 
REMARK       I    between atoms: CB_54  and  CG_57 
REMARK       I    between atoms: N_60  and  CA_62 
REMARK       I    between atoms: CA_62  and  C_64 
REMARK       I    between atoms: CA_62  and  CB_66 
REMARK       I    between atoms: C_64  and  N_75 
REMARK       I    between atoms: CB_66  and  CG_69 
REMARK       I    between atoms: CG_69  and  CD_72 
REMARK       I    between atoms: N_75  and  CA_77 
REMARK       I    between atoms: CA_77  and  CB_81 
REMARK       I    between atoms: CA_77  and  C_79 
REMARK       I    between atoms: C_79  and  N_91 
REMARK       I    between atoms: CB_81  and  CG1_83 
REMARK       I    between atoms: CB_81  and  CG2_87 
REMARK       I    between atoms: N_91  and  CA_93 
REMARK       I    between atoms: CA_93  and  C_95 
REMARK       I    between atoms: CA_93  and  CB_97 
REMARK       I    between atoms: C_95  and  N_111 
REMARK       I    between atoms: CB_97  and  CG_100 
REMARK       I    between atoms: N_111  and  CA_113 
REMARK       I    between atoms: CA_113  and  C_115 
REMARK       I    between atoms: CA_113  and  CB_117 
REMARK       I    between atoms: C_115  and  N_132 
REMARK       I    between atoms: CB_117  and  CG_120 
REMARK       I    between atoms: CZ_125  and  OH_126 
REMARK       I    between atoms: N_132  and  CA_134 
REMARK       I    between atoms: CA_134  and  CB_138 
REMARK       I    between atoms: CA_134  and  C_136 
REMARK       I    between atoms: CB_138  and  CG_141 
REMARK       I    between atoms: CG_141  and  CD_144 
REMARK       I    between atoms: CD_144  and  CE_147 
REMARK       I    between atoms: CE_147  and  NZ_150 
ROOT
ATOM      1  N   SER C   1       3.569  10.245  15.174  1.00  0.00    -0.064 N 
ATOM      2  H   SER C   1       3.868   9.497  16.061  1.00  0.00     0.275 HD
ATOM      3  H2  SER C   1       4.474  10.086  14.405  1.00  0.00     0.275 HD
ATOM      4  H3  SER C   1       2.645   9.680  14.657  1.00  0.00     0.275 HD
ATOM      5  CA  SER C   1       3.063  11.615  15.582  1.00  0.00     0.195 C 
ATOM      6  HA  SER C   1       1.885  11.666  15.755  1.00  0.00     0.102 H 
ATOM      7  C   SER C   1       3.501  12.536  14.439  1.00  0.00     0.251 C 
ATOM      8  O   SER C   1       4.647  12.524  13.986  1.00  0.00    -0.271 OA
ATOM      9  CB  SER C   1       3.799  12.126  16.857  1.00  0.00     0.051 C 
ATOM     10  HB2 SER C   1       3.231  13.111  17.224  1.00  0.00     0.077 H 
ATOM     11  HB3 SER C   1       4.957  12.377  16.711  1.00  0.00     0.077 H 
ATOM     12  OG  SER C   1       3.754  11.236  17.957  1.00  0.00    -0.398 OA
ATOM     13  HG  SER C   1       4.263  11.721  18.912  1.00  0.00     0.209 HD
ATOM     14  N   THR C   2       2.566  13.797  13.447  1.00  0.00    -0.344 N 
ATOM     15  H   THR C   2       1.437  13.467  13.304  1.00  0.00     0.163 HD
ATOM     16  CA  THR C   2       3.390  14.935  13.005  1.00  0.00     0.113 C 
ATOM     17  HA  THR C   2       4.508  14.556  13.157  1.00  0.00     0.091 H 
ATOM     18  C   THR C   2       3.178  16.144  13.890  1.00  0.00     0.243 C 
ATOM     19  O   THR C   2       2.120  16.289  14.512  1.00  0.00    -0.271 OA
ATOM     20  CB  THR C   2       3.032  15.331  11.570  1.00  0.00     0.060 C 
ATOM     21  HB  THR C   2       4.174  15.453  11.227  1.00  0.00     0.086 H 
ATOM     22  CG2 THR C   2       2.818  16.787  11.150  1.00  0.00    -0.050 C 
ATOM     23 1HG2 THR C   2       1.766  17.140  11.598  1.00  0.00     0.031 H 
ATOM     24 2HG2 THR C   2       3.655  17.638  11.087  1.00  0.00     0.031 H 
ATOM     25 3HG2 THR C   2       2.509  16.744   9.991  1.00  0.00     0.031 H 
ATOM     26  OG1 THR C   2       2.746  14.322  10.614  1.00  0.00    -0.393 OA
ATOM     27  HG1 THR C   2       3.727  13.826  10.167  1.00  0.00     0.210 HD
ATOM     28  N   PHE C   3       4.176  17.024  13.956  1.00  0.00    -0.346 N 
ATOM     29  H   PHE C   3       5.217  16.814  13.422  1.00  0.00     0.163 HD
ATOM     30  CA  PHE C   3       4.078  18.235  14.760  1.00  0.00     0.093 C 
ATOM     31  HA  PHE C   3       3.380  17.877  15.660  1.00  0.00     0.088 H 
ATOM     32  C   PHE C   3       3.584  19.404  13.917  1.00  0.00     0.241 C 
ATOM     33  O   PHE C   3       3.883  19.485  12.721  1.00  0.00    -0.271 OA
ATOM     34  CB  PHE C   3       5.444  18.607  15.342  1.00  0.00    -0.014 C 
ATOM     35  HB2 PHE C   3       5.316  18.365  16.508  1.00  0.00     0.043 H 
ATOM     36  HB3 PHE C   3       6.358  17.874  15.095  1.00  0.00     0.043 H 
ATOM     37  CG  PHE C   3       6.256  19.881  15.286  1.00  0.00    -0.059 A 
ATOM     38  CD1 PHE C   3       6.688  20.401  14.059  1.00  0.00    -0.088 A 
ATOM     39  HD1 PHE C   3       6.785  19.755  13.066  1.00  0.00     0.078 H 
ATOM     40  CE1 PHE C   3       7.593  21.472  14.052  1.00  0.00    -0.011 A 
ATOM     41  HE1 PHE C   3       8.609  21.108  13.548  1.00  0.00     0.053 H 
ATOM     42  CZ  PHE C   3       7.968  22.100  15.248  1.00  0.00    -0.095 A 
ATOM     43  HZ  PHE C   3       8.694  23.034  15.360  1.00  0.00     0.077 H 
ATOM     44  CE2 PHE C   3       7.526  21.589  16.476  1.00  0.00    -0.085 A 
ATOM     45  HE2 PHE C   3       7.994  22.025  17.478  1.00  0.00     0.083 H 
ATOM     46  CD2 PHE C   3       6.624  20.521  16.485  1.00  0.00    -0.077 A 
ATOM     47  HD2 PHE C   3       6.275  20.320  17.603  1.00  0.00     0.084 H 
ATOM     48  N   ASP C   4       2.828  20.312  14.532  1.00  0.00    -0.345 N 
ATOM     49  H   ASP C   4       3.016  19.993  15.656  1.00  0.00     0.163 HD
ATOM     50  CA  ASP C   4       2.315  21.483  13.831  1.00  0.00     0.098 C 
ATOM     51  HA  ASP C   4       1.683  21.043  12.919  1.00  0.00     0.088 H 
ATOM     52  C   ASP C   4       3.434  22.478  13.553  1.00  0.00     0.241 C 
ATOM     53  O   ASP C   4       4.193  22.838  14.458  1.00  0.00    -0.271 OA
ATOM     54  CB  ASP C   4       1.246  22.186  14.670  1.00  0.00     0.043 C 
ATOM     55  HB2 ASP C   4       1.216  23.377  14.600  1.00  0.00     0.052 H 
ATOM     56  HB3 ASP C   4       0.141  21.825  14.388  1.00  0.00     0.052 H 
ATOM     57  CG  ASP C   4       1.256  21.908  16.179  1.00  0.00     0.175 C 
ATOM     58  OD1 ASP C   4       2.146  21.166  16.646  1.00  0.00    -0.648 OA
ATOM     59  OD2 ASP C   4       0.375  22.515  16.856  1.00  0.00    -0.648 OA
ATOM     60  N   GLU C   5       3.543  22.927  12.303  1.00  0.00    -0.346 N 
ATOM     61  H   GLU C   5       2.622  22.774  11.567  1.00  0.00     0.163 HD
ATOM     62  CA  GLU C   5       4.563  23.896  11.923  1.00  0.00     0.090 C 
ATOM     63  HA  GLU C   5       4.435  24.704  12.792  1.00  0.00     0.087 H 
ATOM     64  C   GLU C   5       4.219  24.548  10.590  1.00  0.00     0.241 C 
ATOM     65  O   GLU C   5       3.532  23.948   9.757  1.00  0.00    -0.271 OA
ATOM     66  CB  GLU C   5       5.927  23.215  11.786  1.00  0.00    -0.029 C 
ATOM     67  HB2 GLU C   5       6.165  22.859  12.894  1.00  0.00     0.037 H 
ATOM     68  HB3 GLU C   5       5.924  22.346  10.966  1.00  0.00     0.037 H 
ATOM     69  CG  GLU C   5       7.138  24.118  11.499  1.00  0.00     0.018 C 
ATOM     70  HG2 GLU C   5       7.364  24.959  12.318  1.00  0.00     0.049 H 
ATOM     71  HG3 GLU C   5       7.250  24.641  10.433  1.00  0.00     0.049 H 
ATOM     72  CD  GLU C   5       8.475  23.369  11.424  1.00  0.00     0.172 C 
ATOM     73  OE1 GLU C   5       8.967  23.155  10.292  1.00  0.00    -0.648 OA
ATOM     74  OE2 GLU C   5       9.102  23.221  12.495  1.00  0.00    -0.648 OA
ATOM     75  N   VAL C   6       4.691  25.776  10.381  1.00  0.00    -0.346 N 
ATOM     76  H   VAL C   6       5.010  26.347  11.371  1.00  0.00     0.163 HD
ATOM     77  CA  VAL C   6       4.441  26.491   9.135  1.00  0.00     0.092 C 
ATOM     78  HA  VAL C   6       3.254  26.593   9.079  1.00  0.00     0.088 H 
ATOM     79  C   VAL C   6       5.190  25.839   7.980  1.00  0.00     0.241 C 
ATOM     80  O   VAL C   6       6.411  25.662   8.043  1.00  0.00    -0.271 OA
ATOM     81  CB  VAL C   6       4.905  27.945   9.247  1.00  0.00    -0.033 C 
ATOM     82  HB  VAL C   6       6.044  27.702   9.523  1.00  0.00     0.042 H 
ATOM     83  CG1 VAL C   6       5.353  28.716   8.002  1.00  0.00    -0.071 C 
ATOM     84 1HG1 VAL C   6       4.672  29.695   7.898  1.00  0.00     0.028 H 
ATOM     85 2HG1 VAL C   6       6.431  29.245   8.088  1.00  0.00     0.028 H 
ATOM     86 3HG1 VAL C   6       5.454  28.262   6.901  1.00  0.00     0.028 H 
ATOM     87  CG2 VAL C   6       4.750  28.732  10.550  1.00  0.00    -0.071 C 
ATOM     88 1HG2 VAL C   6       4.712  29.920  10.376  1.00  0.00     0.028 H 
ATOM     89 2HG2 VAL C   6       5.555  28.737  11.440  1.00  0.00     0.028 H 
ATOM     90 3HG2 VAL C   6       3.681  28.574  11.070  1.00  0.00     0.028 H 
ATOM     91  N   PHE C   7       4.462  25.480   6.923  1.00  0.00    -0.346 N 
ATOM     92  H   PHE C   7       3.273  25.478   6.904  1.00  0.00     0.163 HD
ATOM     93  CA  PHE C   7       5.068  24.865   5.749  1.00  0.00     0.093 C 
ATOM     94  HA  PHE C   7       6.187  25.200   5.509  1.00  0.00     0.088 H 
ATOM     95  C   PHE C   7       4.255  25.174   4.498  1.00  0.00     0.241 C 
ATOM     96  O   PHE C   7       3.307  24.453   4.172  1.00  0.00    -0.271 OA
ATOM     97  CB  PHE C   7       5.136  23.345   5.913  1.00  0.00    -0.014 C 
ATOM     98  HB2 PHE C   7       4.360  22.995   6.754  1.00  0.00     0.043 H 
ATOM     99  HB3 PHE C   7       6.213  23.163   6.400  1.00  0.00     0.043 H 
ATOM    100  CG  PHE C   7       5.015  22.062   5.134  1.00  0.00    -0.056 A 
ATOM    101  CD1 PHE C   7       3.744  21.653   4.698  1.00  0.00    -0.077 A 
ATOM    102  HD1 PHE C   7       2.652  22.099   4.836  1.00  0.00     0.084 H 
ATOM    103  CE1 PHE C   7       3.565  20.349   4.223  1.00  0.00    -0.082 A 
ATOM    104  HE1 PHE C   7       2.505  19.827   4.101  1.00  0.00     0.083 H 
ATOM    105  CZ  PHE C   7       4.690  19.537   4.011  1.00  0.00    -0.083 A 
ATOM    106  HZ  PHE C   7       4.574  18.481   3.482  1.00  0.00     0.083 H 
ATOM    107  CE2 PHE C   7       5.966  19.950   4.431  1.00  0.00    -0.082 A 
ATOM    108  HE2 PHE C   7       6.857  19.165   4.397  1.00  0.00     0.083 H 
ATOM    109  CD2 PHE C   7       6.148  21.249   4.898  1.00  0.00    -0.077 A 
ATOM    110  HD2 PHE C   7       7.284  21.574   4.780  1.00  0.00     0.084 H 
ATOM    111  N   TYR C   8       4.620  26.244   3.793  1.00  0.00    -0.346 N 
ATOM    112  H   TYR C   8       5.609  26.876   3.980  1.00  0.00     0.163 HD
ATOM    113  CA  TYR C   8       3.916  26.633   2.546  1.00  0.00     0.093 C 
ATOM    114  HA  TYR C   8       3.006  25.897   2.323  1.00  0.00     0.088 H 
ATOM    115  C   TYR C   8       4.909  26.665   1.367  1.00  0.00     0.241 C 
ATOM    116  O   TYR C   8       6.025  27.178   1.500  1.00  0.00    -0.271 OA
ATOM    117  CB  TYR C   8       3.288  28.020   2.694  1.00  0.00    -0.014 C 
ATOM    118  HB2 TYR C   8       2.428  28.167   1.874  1.00  0.00     0.043 H 
ATOM    119  HB3 TYR C   8       4.076  28.873   2.413  1.00  0.00     0.043 H 
ATOM    120  CG  TYR C   8       2.576  28.446   3.946  1.00  0.00    -0.056 A 
ATOM    121  CD1 TYR C   8       1.352  27.878   4.337  1.00  0.00    -0.074 A 
ATOM    122  HD1 TYR C   8       0.509  27.436   3.626  1.00  0.00     0.084 H 
ATOM    123  CE1 TYR C   8       0.837  28.174   5.616  1.00  0.00    -0.051 A 
ATOM    124  HE1 TYR C   8      -0.223  27.779   5.978  1.00  0.00     0.087 H 
ATOM    125  CZ  TYR C   8       1.543  29.056   6.450  1.00  0.00     0.065 A 
ATOM    126  OH  TYR C   8       1.119  29.271   7.731  1.00  0.00    -0.361 OA
ATOM    127  HH  TYR C   8       1.951  29.814   8.371  1.00  0.00     0.217 HD
ATOM    128  CE2 TYR C   8       2.692  29.729   5.999  1.00  0.00    -0.051 A 
ATOM    129  HE2 TYR C   8       2.679  30.898   6.223  1.00  0.00     0.087 H 
ATOM    130  CD2 TYR C   8       3.197  29.435   4.722  1.00  0.00    -0.074 A 
ATOM    131  HD2 TYR C   8       3.939  30.278   4.331  1.00  0.00     0.084 H 
ATOM    132  N   LYS C   9       4.546  26.132   0.205  1.00  0.00    -0.345 N 
ATOM    133  H   LYS C   9       3.485  25.622   0.047  1.00  0.00     0.163 HD
ATOM    134  CA  LYS C   9       5.446  26.214  -0.946  1.00  0.00     0.096 C 
ATOM    135  HA  LYS C   9       6.586  26.036  -0.650  1.00  0.00     0.089 H 
ATOM    136  C   LYS C   9       5.417  27.680  -1.532  1.00  0.00     0.196 C 
ATOM    137  O   LYS C   9       4.546  28.498  -1.140  1.00  0.00    -0.646 OA
ATOM    138  CB  LYS C   9       5.010  25.222  -2.159  1.00  0.00    -0.037 C 
ATOM    139  HB2 LYS C   9       3.821  25.132  -2.125  1.00  0.00     0.036 H 
ATOM    140  HB3 LYS C   9       5.288  25.917  -3.089  1.00  0.00     0.036 H 
ATOM    141  CG  LYS C   9       5.780  23.922  -2.407  1.00  0.00    -0.061 C 
ATOM    142  HG2 LYS C   9       5.717  23.224  -1.439  1.00  0.00     0.033 H 
ATOM    143  HG3 LYS C   9       6.946  24.102  -2.594  1.00  0.00     0.033 H 
ATOM    144  CD  LYS C   9       4.970  23.419  -3.597  1.00  0.00    -0.043 C 
ATOM    145  HD2 LYS C   9       3.923  23.008  -3.186  1.00  0.00     0.035 H 
ATOM    146  HD3 LYS C   9       4.618  24.128  -4.490  1.00  0.00     0.035 H 
ATOM    147  CE  LYS C   9       5.564  22.134  -4.137  1.00  0.00     0.080 C 
ATOM    148  HE2 LYS C   9       4.735  21.379  -4.558  1.00  0.00     0.075 H 
ATOM    149  HE3 LYS C   9       6.169  21.432  -3.382  1.00  0.00     0.075 H 
ATOM    150  NZ  LYS C   9       6.366  22.530  -5.295  1.00  0.00    -0.079 N 
ATOM    151  HZ1 LYS C   9       6.834  21.537  -5.783  1.00  0.00     0.274 HD
ATOM    152  HZ2 LYS C   9       5.808  23.013  -6.240  1.00  0.00     0.274 HD
ATOM    153  HZ3 LYS C   9       7.355  23.191  -5.145  1.00  0.00     0.274 HD
ATOM    154  OXT LYS C   9       6.324  27.971  -2.412  1.00  0.00    -0.646 OA
ENDROOT
TORSDOF 43
