REMARK  0 active torsions:
REMARK  status: ('A' for Active; 'I' for Inactive)
REMARK       I    between atoms: N_1  and  CA_5 
REMARK       I    between atoms: CA_5  and  C_7 
REMARK       I    between atoms: CA_5  and  CB_9 
REMARK       I    between atoms: C_7  and  N_14 
REMARK       I    between atoms: CB_9  and  OG_12 
REMARK       I    between atoms: N_14  and  CA_16 
REMARK       I    between atoms: CA_16  and  CB_20 
REMARK       I    between atoms: CA_16  and  C_18 
REMARK       I    between atoms: C_18  and  N_28 
REMARK       I    between atoms: CB_20  and  CG2_22 
REMARK       I    between atoms: CB_20  and  OG1_26 
REMARK       I    between atoms: N_28  and  CA_30 
REMARK       I    between atoms: CA_30  and  CB_34 
REMARK       I    between atoms: CA_30  and  C_32 
REMARK       I    between atoms: C_32  and  N_48 
REMARK       I    between atoms: CB_34  and  CG_37 
REMARK       I    between atoms: N_48  and  CA_50 
REMARK       I    between atoms: CA_50  and  C_52 
REMARK       I    between atoms: CA_50  and  CB_54 
REMARK       I    between atoms: C_52  and  N_60 
REMARK       I    between atoms: CB_54  and  CG_57 
REMARK       I    between atoms: N_60  and  CA_62 
REMARK       I    between atoms: CA_62  and  CB_66 
REMARK       I    between atoms: CA_62  and  C_64 
REMARK       I    between atoms: C_64  and  N_75 
REMARK       I    between atoms: CB_66  and  CG_69 
REMARK       I    between atoms: CG_69  and  CD_72 
REMARK       I    between atoms: N_75  and  CA_77 
REMARK       I    between atoms: CB_81  and  CG2_87 
REMARK       I    between atoms: CA_93  and  CB_97 
REMARK       I    between atoms: CB_97  and  CG_100 
REMARK       I    between atoms: CA_113  and  C_115 
REMARK       I    between atoms: C_115  and  N_132 
REMARK       I    between atoms: CZ_125  and  OH_126 
REMARK       I    between atoms: N_132  and  CA_134 
REMARK       I    between atoms: CA_134  and  CB_138 
REMARK       I    between atoms: CA_134  and  C_136 
REMARK       I    between atoms: CB_138  and  CG_141 
REMARK       I    between atoms: CG_141  and  CD_144 
REMARK       I    between atoms: CD_144  and  CE_147 
REMARK       I    between atoms: CE_147  and  NZ_150 
ROOT
ATOM      1  N   SER C   1       3.569  10.245  15.174  1.00  0.00    -0.064 N 
ATOM      2  H   SER C   1       3.156   9.378  15.892  1.00  0.00     0.275 HD
ATOM      3  H2  SER C   1       4.741  10.006  15.108  1.00  0.00     0.275 HD
ATOM      4  H3  SER C   1       3.137   9.923  14.103  1.00  0.00     0.275 HD
ATOM      5  CA  SER C   1       3.063  11.615  15.582  1.00  0.00     0.195 C 
ATOM      6  HA  SER C   1       1.900  11.478  15.810  1.00  0.00     0.102 H 
ATOM      7  C   SER C   1       3.501  12.536  14.439  1.00  0.00     0.251 C 
ATOM      8  O   SER C   1       4.647  12.524  13.986  1.00  0.00    -0.271 OA
ATOM      9  CB  SER C   1       3.799  12.126  16.857  1.00  0.00     0.051 C 
ATOM     10  HB2 SER C   1       4.976  12.285  16.728  1.00  0.00     0.077 H 
ATOM     11  HB3 SER C   1       3.295  13.131  17.258  1.00  0.00     0.077 H 
ATOM     12  OG  SER C   1       3.751  11.233  17.955  1.00  0.00    -0.398 OA
ATOM     13  HG  SER C   1       3.803  11.828  18.979  1.00  0.00     0.209 HD
ATOM     14  N   THR C   2       2.645  13.462  14.123  1.00  0.00    -0.344 N 
ATOM     15  H   THR C   2       1.741  13.749  14.840  1.00  0.00     0.163 HD
ATOM     16  CA  THR C   2       2.846  14.378  12.987  1.00  0.00     0.113 C 
ATOM     17  HA  THR C   2       3.317  13.633  12.182  1.00  0.00     0.091 H 
ATOM     18  C   THR C   2       3.766  15.521  13.358  1.00  0.00     0.243 C 
ATOM     19  O   THR C   2       3.873  15.884  14.534  1.00  0.00    -0.271 OA
ATOM     20  CB  THR C   2       1.511  14.974  12.535  1.00  0.00     0.060 C 
ATOM     21  HB  THR C   2       1.616  14.695  11.372  1.00  0.00     0.086 H 
ATOM     22  CG2 THR C   2       1.341  16.468  12.241  1.00  0.00    -0.050 C 
ATOM     23 1HG2 THR C   2       1.976  17.399  11.850  1.00  0.00     0.031 H 
ATOM     24 2HG2 THR C   2       0.885  16.881  13.271  1.00  0.00     0.031 H 
ATOM     25 3HG2 THR C   2       0.427  16.592  11.470  1.00  0.00     0.031 H 
ATOM     26  OG1 THR C   2       0.350  14.158  12.516  1.00  0.00    -0.393 OA
ATOM     27  HG1 THR C   2      -0.464  14.576  13.269  1.00  0.00     0.210 HD
ATOM     28  N   PHE C   3       4.439  16.099  12.364  1.00  0.00    -0.346 N 
ATOM     29  H   PHE C   3       4.404  15.668  11.256  1.00  0.00     0.163 HD
ATOM     30  CA  PHE C   3       5.339  17.221  12.598  1.00  0.00     0.088 C 
ATOM     31  HA  PHE C   3       5.530  17.337  13.770  1.00  0.00     0.087 H 
ATOM     32  C   PHE C   3       4.783  18.496  11.978  1.00  0.00     0.221 C 
ATOM     33  O   PHE C   3       4.046  18.443  10.988  1.00  0.00    -0.278 OA
ATOM     34  CB  PHE C   3       6.712  16.946  11.983  1.00  0.00    -0.014 C 
ATOM     35  HB2 PHE C   3       6.819  15.882  11.444  1.00  0.00     0.043 H 
ATOM     36  HB3 PHE C   3       7.432  16.773  12.924  1.00  0.00     0.043 H 
ATOM     37  CG  PHE C   3       7.529  17.745  10.985  1.00  0.00    -0.056 A 
ATOM     38  CD1 PHE C   3       7.043  18.040   9.698  1.00  0.00    -0.077 A 
ATOM     39  HD1 PHE C   3       6.206  17.407   9.139  1.00  0.00     0.084 H 
ATOM     40  CE1 PHE C   3       7.881  18.640   8.746  1.00  0.00    -0.082 A 
ATOM     41  HE1 PHE C   3       7.727  18.458   7.582  1.00  0.00     0.083 H 
ATOM     42  CZ  PHE C   3       9.182  19.029   9.101  1.00  0.00    -0.083 A 
ATOM     43  HZ  PHE C   3       9.960  19.428   8.298  1.00  0.00     0.083 H 
ATOM     44  CE2 PHE C   3       9.671  18.748  10.385  1.00  0.00    -0.082 A 
ATOM     45  HE2 PHE C   3      10.820  18.963  10.600  1.00  0.00     0.083 H 
ATOM     46  CD2 PHE C   3       8.828  18.161  11.335  1.00  0.00    -0.077 A 
ATOM     47  HD2 PHE C   3       9.414  18.084  12.366  1.00  0.00     0.084 H 
ATOM     48  N   ASP C   4       5.132  19.646  12.553  1.00  0.00    -0.247 NA
ATOM     49  H   ASP C   4       4.815  19.575  13.700  1.00  0.00     0.131 HD
ATOM     50  CA  ASP C   4       4.678  20.931  12.034  1.00  0.00     0.085 C 
ATOM     51  HA  ASP C   4       3.489  20.951  12.136  1.00  0.00     0.080 H 
ATOM     52  C   ASP C   4       5.226  21.172  10.634  1.00  0.00     0.236 C 
ATOM     53  O   ASP C   4       6.438  21.084  10.410  1.00  0.00    -0.272 OA
ATOM     54  CB  ASP C   4       5.150  22.072  12.937  1.00  0.00     0.039 C 
ATOM     55  HB2 ASP C   4       5.462  23.107  12.428  1.00  0.00     0.052 H 
ATOM     56  HB3 ASP C   4       4.307  22.388  13.727  1.00  0.00     0.052 H 
ATOM     57  CG  ASP C   4       6.340  21.786  13.859  1.00  0.00     0.174 C 
ATOM     58  OD1 ASP C   4       6.879  20.659  13.808  1.00  0.00    -0.648 OA
ATOM     59  OD2 ASP C   4       6.730  22.761  14.571  1.00  0.00    -0.648 OA
ATOM     60  N   GLU C   5       4.341  21.476   9.686  1.00  0.00    -0.346 N 
ATOM     61  H   GLU C   5       3.216  21.729   9.979  1.00  0.00     0.163 HD
ATOM     62  CA  GLU C   5       4.751  21.746   8.313  1.00  0.00     0.090 C 
ATOM     63  HA  GLU C   5       5.305  20.736   8.006  1.00  0.00     0.087 H 
ATOM     64  C   GLU C   5       5.546  23.043   8.234  1.00  0.00     0.241 C 
ATOM     65  O   GLU C   5       5.661  23.770   9.226  1.00  0.00    -0.271 OA
ATOM     66  CB  GLU C   5       3.529  21.875   7.402  1.00  0.00    -0.029 C 
ATOM     67  HB2 GLU C   5       2.695  22.652   7.765  1.00  0.00     0.037 H 
ATOM     68  HB3 GLU C   5       2.921  20.844   7.458  1.00  0.00     0.037 H 
ATOM     69  CG  GLU C   5       3.761  22.160   5.914  1.00  0.00     0.018 C 
ATOM     70  HG2 GLU C   5       4.097  21.087   5.498  1.00  0.00     0.049 H 
ATOM     71  HG3 GLU C   5       4.380  22.834   5.152  1.00  0.00     0.049 H 
ATOM     72  CD  GLU C   5       2.455  22.350   5.132  1.00  0.00     0.172 C 
ATOM     73  OE1 GLU C   5       2.150  23.509   4.766  1.00  0.00    -0.648 OA
ATOM     74  OE2 GLU C   5       1.897  21.312   4.718  1.00  0.00    -0.648 OA
ATOM     75  N   VAL C   6       6.096  23.340   7.057  1.00  0.00    -0.346 N 
ATOM     76  H   VAL C   6       6.398  22.321   6.522  1.00  0.00     0.163 HD
ATOM     77  CA  VAL C   6       6.862  24.566   6.857  1.00  0.00     0.087 C 
ATOM     78  HA  VAL C   6       7.209  24.960   7.932  1.00  0.00     0.087 H 
ATOM     79  C   VAL C   6       5.947  25.714   6.453  1.00  0.00     0.221 C 
ATOM     80  O   VAL C   6       6.379  26.870   6.395  1.00  0.00    -0.278 OA
ATOM     81  CB  VAL C   6       7.906  24.373   5.755  1.00  0.00    -0.032 C 
ATOM     82  HB  VAL C   6       7.091  23.958   4.995  1.00  0.00     0.042 H 
ATOM     83  CG1 VAL C   6       8.602  25.696   5.392  1.00  0.00    -0.057 C 
ATOM     84 1HG1 VAL C   6       8.546  26.121   6.527  1.00  0.00     0.029 H 
ATOM     85 2HG1 VAL C   6       8.067  26.703   5.000  1.00  0.00     0.029 H 
ATOM     86 3HG1 VAL C   6       9.757  26.050   5.509  1.00  0.00     0.029 H 
ATOM     87  CG2 VAL C   6       8.911  23.417   6.381  1.00  0.00    -0.071 C 
ATOM     88 1HG2 VAL C   6       9.070  22.320   5.910  1.00  0.00     0.028 H 
ATOM     89 2HG2 VAL C   6       8.586  22.956   7.447  1.00  0.00     0.028 H 
ATOM     90 3HG2 VAL C   6       9.908  23.828   6.924  1.00  0.00     0.028 H 
ATOM     91  N   PHE C   7       4.683  25.400   6.173  1.00  0.00    -0.247 NA
ATOM     92  H   PHE C   7       4.053  24.836   7.008  1.00  0.00     0.131 HD
ATOM     93  CA  PHE C   7       3.708  26.414   5.793  1.00  0.00     0.080 C 
ATOM     94  HA  PHE C   7       2.599  26.034   5.571  1.00  0.00     0.079 H 
ATOM     95  C   PHE C   7       4.113  27.090   4.489  1.00  0.00     0.236 C 
ATOM     96  O   PHE C   7       3.927  28.300   4.325  1.00  0.00    -0.272 OA
ATOM     97  CB  PHE C   7       3.600  27.489   6.877  1.00  0.00    -0.018 C 
ATOM     98  HB2 PHE C   7       4.536  28.229   6.928  1.00  0.00     0.043 H 
ATOM     99  HB3 PHE C   7       3.347  26.960   7.919  1.00  0.00     0.043 H 
ATOM    100  CG  PHE C   7       2.573  28.589   7.055  1.00  0.00    -0.056 A 
ATOM    101  CD1 PHE C   7       1.527  28.824   6.145  1.00  0.00    -0.077 A 
ATOM    102  HD1 PHE C   7       0.977  28.138   5.347  1.00  0.00     0.084 H 
ATOM    103  CE1 PHE C   7       0.747  29.985   6.276  1.00  0.00    -0.082 A 
ATOM    104  HE1 PHE C   7      -0.025  30.348   5.450  1.00  0.00     0.083 H 
ATOM    105  CZ  PHE C   7       0.921  30.833   7.380  1.00  0.00    -0.083 A 
ATOM    106  HZ  PHE C   7       0.224  31.787   7.503  1.00  0.00     0.083 H 
ATOM    107  CE2 PHE C   7       1.905  30.551   8.344  1.00  0.00    -0.082 A 
ATOM    108  HE2 PHE C   7       1.998  31.314   9.250  1.00  0.00     0.083 H 
ATOM    109  CD2 PHE C   7       2.708  29.428   8.182  1.00  0.00    -0.077 A 
ATOM    110  HD2 PHE C   7       3.438  29.343   9.116  1.00  0.00     0.084 H 
ATOM    111  N   TYR C   8       4.666  26.315   3.557  1.00  0.00    -0.346 N 
ATOM    112  H   TYR C   8       4.259  25.207   3.437  1.00  0.00     0.163 HD
ATOM    113  CA  TYR C   8       5.083  26.857   2.240  1.00  0.00     0.093 C 
ATOM    114  HA  TYR C   8       5.287  28.032   2.296  1.00  0.00     0.088 H 
ATOM    115  C   TYR C   8       3.877  26.896   1.280  1.00  0.00     0.241 C 
ATOM    116  O   TYR C   8       3.099  25.940   1.211  1.00  0.00    -0.271 OA
ATOM    117  CB  TYR C   8       6.174  25.981   1.619  1.00  0.00    -0.014 C 
ATOM    118  HB2 TYR C   8       6.082  24.935   1.057  1.00  0.00     0.043 H 
ATOM    119  HB3 TYR C   8       6.817  26.845   1.098  1.00  0.00     0.043 H 
ATOM    120  CG  TYR C   8       7.318  25.421   2.403  1.00  0.00    -0.059 A 
ATOM    121  CD1 TYR C   8       8.326  26.250   2.926  1.00  0.00    -0.087 A 
ATOM    122  HD1 TYR C   8       8.659  27.317   2.514  1.00  0.00     0.078 H 
ATOM    123  CE1 TYR C   8       9.299  25.675   3.767  1.00  0.00     0.006 A 
ATOM    124  HE1 TYR C   8      10.367  25.983   3.325  1.00  0.00     0.056 H 
ATOM    125  CZ  TYR C   8       9.227  24.301   4.080  1.00  0.00     0.050 A 
ATOM    126  OH  TYR C   8      10.077  23.768   5.006  1.00  0.00    -0.364 OA
ATOM    127  HH  TYR C   8      11.118  23.514   4.488  1.00  0.00     0.217 HD
ATOM    128  CE2 TYR C   8       8.281  23.457   3.459  1.00  0.00    -0.054 A 
ATOM    129  HE2 TYR C   8       8.686  22.399   3.091  1.00  0.00     0.087 H 
ATOM    130  CD2 TYR C   8       7.323  24.033   2.608  1.00  0.00    -0.075 A 
ATOM    131  HD2 TYR C   8       6.745  23.119   2.109  1.00  0.00     0.084 H 
ATOM    132  N   LYS C   9       4.546  26.132   0.205  1.00  0.00    -0.345 N 
ATOM    133  H   LYS C   9       4.082  25.043   0.054  1.00  0.00     0.163 HD
ATOM    134  CA  LYS C   9       5.446  26.214  -0.946  1.00  0.00     0.096 C 
ATOM    135  HA  LYS C   9       6.633  26.125  -1.026  1.00  0.00     0.089 H 
ATOM    136  C   LYS C   9       5.417  27.680  -1.532  1.00  0.00     0.196 C 
ATOM    137  O   LYS C   9       4.546  28.498  -1.140  1.00  0.00    -0.646 OA
ATOM    138  CB  LYS C   9       5.010  25.222  -2.159  1.00  0.00    -0.037 C 
ATOM    139  HB2 LYS C   9       3.815  25.174  -2.151  1.00  0.00     0.036 H 
ATOM    140  HB3 LYS C   9       5.194  25.900  -3.128  1.00  0.00     0.036 H 
ATOM    141  CG  LYS C   9       5.781  23.923  -2.414  1.00  0.00    -0.061 C 
ATOM    142  HG2 LYS C   9       6.944  24.098  -2.627  1.00  0.00     0.033 H 
ATOM    143  HG3 LYS C   9       5.737  23.143  -1.510  1.00  0.00     0.033 H 
ATOM    144  CD  LYS C   9       4.973  23.413  -3.602  1.00  0.00    -0.043 C 
ATOM    145  HD2 LYS C   9       3.913  23.015  -3.207  1.00  0.00     0.035 H 
ATOM    146  HD3 LYS C   9       4.634  24.139  -4.490  1.00  0.00     0.035 H 
ATOM    147  CE  LYS C   9       5.564  22.127  -4.145  1.00  0.00     0.080 C 
ATOM    148  HE2 LYS C   9       6.179  21.385  -3.435  1.00  0.00     0.075 H 
ATOM    149  HE3 LYS C   9       4.695  21.397  -4.532  1.00  0.00     0.075 H 
ATOM    150  NZ  LYS C   9       6.368  22.525  -5.299  1.00  0.00    -0.079 N 
ATOM    151  HZ1 LYS C   9       7.479  22.918  -5.081  1.00  0.00     0.274 HD
ATOM    152  HZ2 LYS C   9       6.593  21.524  -5.924  1.00  0.00     0.274 HD
ATOM    153  HZ3 LYS C   9       5.970  23.224  -6.189  1.00  0.00     0.274 HD
ATOM    154  OXT LYS C   9       6.317  28.005  -2.412  1.00  0.00    -0.646 OA
ENDROOT
TORSDOF 35
