REMARK  0 active torsions:
REMARK  status: ('A' for Active; 'I' for Inactive)
REMARK       I    between atoms: N_1  and  CA_5 
REMARK       I    between atoms: CA_5  and  C_7 
REMARK       I    between atoms: CA_5  and  CB_9 
REMARK       I    between atoms: C_7  and  N_14 
REMARK       I    between atoms: CB_9  and  OG_12 
REMARK       I    between atoms: N_14  and  CA_16 
REMARK       I    between atoms: CA_16  and  CB_20 
REMARK       I    between atoms: CA_16  and  C_18 
REMARK       I    between atoms: C_18  and  N_28 
REMARK       I    between atoms: CB_20  and  CG2_22 
REMARK       I    between atoms: CB_20  and  OG1_26 
REMARK       I    between atoms: N_28  and  CA_30 
REMARK       I    between atoms: CA_30  and  CB_34 
REMARK       I    between atoms: CA_30  and  C_32 
REMARK       I    between atoms: C_32  and  N_48 
REMARK       I    between atoms: CB_34  and  CG_37 
REMARK       I    between atoms: N_48  and  CA_50 
REMARK       I    between atoms: CA_50  and  C_52 
REMARK       I    between atoms: CA_50  and  CB_54 
REMARK       I    between atoms: C_52  and  N_60 
REMARK       I    between atoms: CB_54  and  CG_57 
REMARK       I    between atoms: N_60  and  CA_62 
REMARK       I    between atoms: CA_62  and  C_64 
REMARK       I    between atoms: CA_62  and  CB_66 
REMARK       I    between atoms: C_64  and  N_75 
REMARK       I    between atoms: CB_66  and  CG_69 
REMARK       I    between atoms: CG_69  and  CD_72 
REMARK       I    between atoms: N_75  and  CA_77 
REMARK       I    between atoms: CA_77  and  CB_81 
REMARK       I    between atoms: CA_77  and  C_79 
REMARK       I    between atoms: C_79  and  N_91 
REMARK       I    between atoms: CB_81  and  CG2_87 
REMARK       I    between atoms: CB_81  and  CG1_83 
REMARK       I    between atoms: N_91  and  CA_93 
REMARK       I    between atoms: CA_113  and  CB_117 
REMARK       I    between atoms: N_132  and  C_115 
REMARK       I    between atoms: CB_117  and  CG_120 
REMARK       I    between atoms: CZ_125  and  OH_126 
REMARK       I    between atoms: N_132  and  CA_134 
REMARK       I    between atoms: CA_134  and  CB_138 
REMARK       I    between atoms: CA_134  and  C_136 
REMARK       I    between atoms: CB_138  and  CG_141 
REMARK       I    between atoms: CG_141  and  CD_144 
REMARK       I    between atoms: CD_144  and  CE_147 
REMARK       I    between atoms: CE_147  and  NZ_150 
ROOT
ATOM      1  N   SER C   1       3.569  10.245  15.174  1.00  0.00    -0.064 N 
ATOM      2  H   SER C   1       4.756  10.368  15.014  1.00  0.00     0.275 HD
ATOM      3  H2  SER C   1       2.876  10.035  14.212  1.00  0.00     0.275 HD
ATOM      4  H3  SER C   1       3.515   9.125  15.629  1.00  0.00     0.275 HD
ATOM      5  CA  SER C   1       3.063  11.615  15.582  1.00  0.00     0.195 C 
ATOM      6  HA  SER C   1       1.917  11.436  15.860  1.00  0.00     0.102 H 
ATOM      7  C   SER C   1       3.501  12.536  14.439  1.00  0.00     0.251 C 
ATOM      8  O   SER C   1       4.647  12.524  13.986  1.00  0.00    -0.271 OA
ATOM      9  CB  SER C   1       3.799  12.126  16.857  1.00  0.00     0.051 C 
ATOM     10  HB2 SER C   1       2.976  12.604  17.587  1.00  0.00     0.077 H 
ATOM     11  HB3 SER C   1       4.293  11.247  17.498  1.00  0.00     0.077 H 
ATOM     12  OG  SER C   1       4.732  13.181  16.738  1.00  0.00    -0.398 OA
ATOM     13  HG  SER C   1       5.176  13.511  17.787  1.00  0.00     0.209 HD
ATOM     14  N   THR C   2       2.645  13.462  14.123  1.00  0.00    -0.344 N 
ATOM     15  H   THR C   2       1.892  13.823  14.970  1.00  0.00     0.163 HD
ATOM     16  CA  THR C   2       2.846  14.378  12.987  1.00  0.00     0.113 C 
ATOM     17  HA  THR C   2       3.358  13.648  12.195  1.00  0.00     0.091 H 
ATOM     18  C   THR C   2       3.766  15.521  13.358  1.00  0.00     0.243 C 
ATOM     19  O   THR C   2       3.873  15.884  14.534  1.00  0.00    -0.271 OA
ATOM     20  CB  THR C   2       1.511  14.974  12.535  1.00  0.00     0.060 C 
ATOM     21  HB  THR C   2       1.489  16.164  12.620  1.00  0.00     0.086 H 
ATOM     22  CG2 THR C   2       1.217  14.588  11.082  1.00  0.00    -0.050 C 
ATOM     23 1HG2 THR C   2       0.543  15.433  10.560  1.00  0.00     0.031 H 
ATOM     24 2HG2 THR C   2       0.562  13.587  10.984  1.00  0.00     0.031 H 
ATOM     25 3HG2 THR C   2       2.046  14.403  10.236  1.00  0.00     0.031 H 
ATOM     26  OG1 THR C   2       0.369  14.486  13.214  1.00  0.00    -0.393 OA
ATOM     27  HG1 THR C   2      -0.325  15.353  13.630  1.00  0.00     0.210 HD
ATOM     28  N   PHE C   3       4.439  16.099  12.364  1.00  0.00    -0.346 N 
ATOM     29  H   PHE C   3       4.493  15.631  11.272  1.00  0.00     0.163 HD
ATOM     30  CA  PHE C   3       5.339  17.221  12.598  1.00  0.00     0.093 C 
ATOM     31  HA  PHE C   3       5.082  17.630  13.687  1.00  0.00     0.088 H 
ATOM     32  C   PHE C   3       5.064  18.348  11.611  1.00  0.00     0.241 C 
ATOM     33  O   PHE C   3       4.536  18.111  10.519  1.00  0.00    -0.271 OA
ATOM     34  CB  PHE C   3       6.796  16.784  12.435  1.00  0.00    -0.017 C 
ATOM     35  HB2 PHE C   3       6.892  15.757  13.042  1.00  0.00     0.043 H 
ATOM     36  HB3 PHE C   3       7.113  16.479  11.320  1.00  0.00     0.043 H 
ATOM     37  CG  PHE C   3       8.059  17.349  13.011  1.00  0.00    -0.069 A 
ATOM     38  CD1 PHE C   3       9.058  17.896  12.190  1.00  0.00    -0.005 A 
ATOM     39  HD1 PHE C   3       8.897  19.068  12.053  1.00  0.00     0.054 H 
ATOM     40  CE1 PHE C   3      10.380  17.895  12.640  1.00  0.00    -0.094 A 
ATOM     41  HE1 PHE C   3      11.378  18.344  12.178  1.00  0.00     0.077 H 
ATOM     42  CZ  PHE C   3      10.652  17.398  13.919  1.00  0.00    -0.086 A 
ATOM     43  HZ  PHE C   3      11.723  16.990  14.234  1.00  0.00     0.083 H 
ATOM     44  CE2 PHE C   3       9.598  17.270  14.842  1.00  0.00    -0.083 A 
ATOM     45  HE2 PHE C   3       9.910  17.151  15.982  1.00  0.00     0.083 H 
ATOM     46  CD2 PHE C   3       8.279  17.298  14.381  1.00  0.00    -0.080 A 
ATOM     47  HD2 PHE C   3       7.549  17.397  15.314  1.00  0.00     0.083 H 
ATOM     48  N   ASP C   4       5.420  19.576  11.985  1.00  0.00    -0.345 N 
ATOM     49  H   ASP C   4       5.829  19.650  13.094  1.00  0.00     0.163 HD
ATOM     50  CA  ASP C   4       5.225  20.729  11.115  1.00  0.00     0.098 C 
ATOM     51  HA  ASP C   4       4.320  20.677  10.340  1.00  0.00     0.088 H 
ATOM     52  C   ASP C   4       6.476  21.001  10.291  1.00  0.00     0.241 C 
ATOM     53  O   ASP C   4       6.790  22.157   9.989  1.00  0.00    -0.271 OA
ATOM     54  CB  ASP C   4       4.913  21.979  11.941  1.00  0.00     0.043 C 
ATOM     55  HB2 ASP C   4       5.058  23.065  11.463  1.00  0.00     0.052 H 
ATOM     56  HB3 ASP C   4       3.745  21.956  12.201  1.00  0.00     0.052 H 
ATOM     57  CG  ASP C   4       5.382  22.196  13.404  1.00  0.00     0.175 C 
ATOM     58  OD1 ASP C   4       6.126  21.413  13.999  1.00  0.00    -0.648 OA
ATOM     59  OD2 ASP C   4       5.166  23.301  13.952  1.00  0.00    -0.648 OA
ATOM     60  N   GLU C   5       7.196  19.942   9.924  1.00  0.00    -0.346 N 
ATOM     61  H   GLU C   5       6.681  18.893   9.714  1.00  0.00     0.163 HD
ATOM     62  CA  GLU C   5       8.403  20.078   9.117  1.00  0.00     0.090 C 
ATOM     63  HA  GLU C   5       9.122  20.848   9.677  1.00  0.00     0.087 H 
ATOM     64  C   GLU C   5       8.073  20.660   7.748  1.00  0.00     0.241 C 
ATOM     65  O   GLU C   5       8.664  21.662   7.333  1.00  0.00    -0.271 OA
ATOM     66  CB  GLU C   5       9.069  18.716   8.912  1.00  0.00    -0.029 C 
ATOM     67  HB2 GLU C   5       8.686  18.132   7.940  1.00  0.00     0.037 H 
ATOM     68  HB3 GLU C   5       8.976  17.872   9.748  1.00  0.00     0.037 H 
ATOM     69  CG  GLU C   5      10.573  18.739   8.585  1.00  0.00     0.018 C 
ATOM     70  HG2 GLU C   5      10.848  19.169   7.506  1.00  0.00     0.049 H 
ATOM     71  HG3 GLU C   5      11.267  19.375   9.319  1.00  0.00     0.049 H 
ATOM     72  CD  GLU C   5      11.303  17.385   8.565  1.00  0.00     0.172 C 
ATOM     73  OE1 GLU C   5      11.757  17.020   7.460  1.00  0.00    -0.648 OA
ATOM     74  OE2 GLU C   5      11.194  16.611   9.548  1.00  0.00    -0.648 OA
ATOM     75  N   VAL C   6       7.131  20.038   7.042  1.00  0.00    -0.346 N 
ATOM     76  H   VAL C   6       6.122  19.698   7.564  1.00  0.00     0.163 HD
ATOM     77  CA  VAL C   6       6.718  20.515   5.726  1.00  0.00     0.092 C 
ATOM     78  HA  VAL C   6       7.733  20.583   5.103  1.00  0.00     0.088 H 
ATOM     79  C   VAL C   6       5.820  21.739   5.854  1.00  0.00     0.241 C 
ATOM     80  O   VAL C   6       4.622  21.612   6.125  1.00  0.00    -0.271 OA
ATOM     81  CB  VAL C   6       5.944  19.428   4.978  1.00  0.00    -0.033 C 
ATOM     82  HB  VAL C   6       4.791  19.665   5.228  1.00  0.00     0.042 H 
ATOM     83  CG1 VAL C   6       5.757  19.518   3.462  1.00  0.00    -0.071 C 
ATOM     84 1HG1 VAL C   6       4.737  19.963   3.012  1.00  0.00     0.028 H 
ATOM     85 2HG1 VAL C   6       6.593  20.172   2.904  1.00  0.00     0.028 H 
ATOM     86 3HG1 VAL C   6       5.861  18.490   2.850  1.00  0.00     0.028 H 
ATOM     87  CG2 VAL C   6       5.776  18.022   5.563  1.00  0.00    -0.071 C 
ATOM     88 1HG2 VAL C   6       4.809  17.430   5.163  1.00  0.00     0.028 H 
ATOM     89 2HG2 VAL C   6       5.733  17.655   6.701  1.00  0.00     0.028 H 
ATOM     90 3HG2 VAL C   6       6.685  17.396   5.096  1.00  0.00     0.028 H 
ATOM     91  N   PHE C   7       6.396  22.925   5.661  1.00  0.00    -0.346 N 
ATOM     92  H   PHE C   7       7.471  23.033   5.165  1.00  0.00     0.163 HD
ATOM     93  CA  PHE C   7       5.636  24.166   5.737  1.00  0.00     0.093 C 
ATOM     94  HA  PHE C   7       4.631  23.950   6.340  1.00  0.00     0.088 H 
ATOM     95  C   PHE C   7       5.393  24.737   4.346  1.00  0.00     0.241 C 
ATOM     96  O   PHE C   7       6.199  24.528   3.433  1.00  0.00    -0.271 OA
ATOM     97  CB  PHE C   7       6.395  25.211   6.558  1.00  0.00    -0.014 C 
ATOM     98  HB2 PHE C   7       5.818  25.412   7.587  1.00  0.00     0.043 H 
ATOM     99  HB3 PHE C   7       7.489  24.947   6.962  1.00  0.00     0.043 H 
ATOM    100  CG  PHE C   7       6.592  26.579   5.939  1.00  0.00    -0.056 A 
ATOM    101  CD1 PHE C   7       7.348  26.598   4.754  1.00  0.00    -0.078 A 
ATOM    102  HD1 PHE C   7       8.475  26.219   4.776  1.00  0.00     0.084 H 
ATOM    103  CE1 PHE C   7       7.124  27.635   3.838  1.00  0.00    -0.071 A 
ATOM    104  HE1 PHE C   7       8.004  27.816   3.055  1.00  0.00     0.081 H 
ATOM    105  CZ  PHE C   7       6.324  28.766   4.163  1.00  0.00     0.079 A 
ATOM    106  HZ  PHE C   7       6.595  29.851   3.749  1.00  0.00     0.097 H 
ATOM    107  CE2 PHE C   7       5.813  28.811   5.473  1.00  0.00    -0.071 A 
ATOM    108  HE2 PHE C   7       5.224  29.771   5.852  1.00  0.00     0.081 H 
ATOM    109  CD2 PHE C   7       6.031  27.795   6.438  1.00  0.00    -0.078 A 
ATOM    110  HD2 PHE C   7       6.054  28.146   7.573  1.00  0.00     0.084 H 
ATOM    111  N   TYR C   8       4.286  25.458   4.176  1.00  0.00    -0.347 N 
ATOM    112  H   TYR C   8       3.637  25.721   5.135  1.00  0.00     0.163 HD
ATOM    113  CA  TYR C   8       3.953  26.080   2.871  1.00  0.00     0.077 C 
ATOM    114  HA  TYR C   8       3.938  25.086   2.216  1.00  0.00     0.086 H 
ATOM    115  C   TYR C   8       5.077  27.046   2.445  1.00  0.00     0.139 C 
ATOM    116  O   TYR C   8       5.581  27.823   3.263  1.00  0.00    -0.324 OA
ATOM    117  CB  TYR C   8       2.644  26.866   2.968  1.00  0.00    -0.015 C 
ATOM    118  HB2 TYR C   8       2.080  27.235   1.982  1.00  0.00     0.043 H 
ATOM    119  HB3 TYR C   8       2.779  27.952   3.449  1.00  0.00     0.043 H 
ATOM    120  CG  TYR C   8       1.590  26.126   3.731  1.00  0.00    -0.056 A 
ATOM    121  CD1 TYR C   8       1.262  24.898   3.142  1.00  0.00    -0.074 A 
ATOM    122  HD1 TYR C   8       1.241  24.570   1.999  1.00  0.00     0.084 H 
ATOM    123  CE1 TYR C   8       0.254  24.128   3.718  1.00  0.00    -0.051 A 
ATOM    124  HE1 TYR C   8       0.120  22.950   3.668  1.00  0.00     0.087 H 
ATOM    125  CZ  TYR C   8      -0.656  24.904   4.452  1.00  0.00     0.065 A 
ATOM    126  OH  TYR C   8      -1.981  24.879   4.159  1.00  0.00    -0.361 OA
ATOM    127  HH  TYR C   8      -2.564  25.479   4.997  1.00  0.00     0.217 HD
ATOM    128  CE2 TYR C   8      -0.012  25.705   5.418  1.00  0.00    -0.051 A 
ATOM    129  HE2 TYR C   8      -0.195  25.577   6.584  1.00  0.00     0.087 H 
ATOM    130  CD2 TYR C   8       0.980  26.570   4.926  1.00  0.00    -0.074 A 
ATOM    131  HD2 TYR C   8       0.952  27.660   5.396  1.00  0.00     0.084 H 
ATOM    132  N   LYS C   9       4.546  26.132   0.205  1.00  0.00    -0.358 N 
ATOM    133  H   LYS C   9       3.395  26.387   0.078  1.00  0.00     0.162 HD
ATOM    134  CA  LYS C   9       5.446  26.214  -0.946  1.00  0.00     0.095 C 
ATOM    135  HA  LYS C   9       6.570  26.147  -0.559  1.00  0.00     0.089 H 
ATOM    136  C   LYS C   9       5.417  27.680  -1.532  1.00  0.00     0.196 C 
ATOM    137  O   LYS C   9       4.546  28.498  -1.140  1.00  0.00    -0.646 OA
ATOM    138  CB  LYS C   9       5.010  25.222  -2.159  1.00  0.00    -0.037 C 
ATOM    139  HB2 LYS C   9       3.852  25.073  -1.882  1.00  0.00     0.036 H 
ATOM    140  HB3 LYS C   9       4.758  25.934  -3.085  1.00  0.00     0.036 H 
ATOM    141  CG  LYS C   9       5.340  23.743  -1.970  1.00  0.00    -0.061 C 
ATOM    142  HG2 LYS C   9       4.719  23.099  -1.176  1.00  0.00     0.033 H 
ATOM    143  HG3 LYS C   9       6.470  23.595  -1.608  1.00  0.00     0.033 H 
ATOM    144  CD  LYS C   9       5.140  23.162  -3.367  1.00  0.00    -0.043 C 
ATOM    145  HD2 LYS C   9       5.554  22.037  -3.380  1.00  0.00     0.035 H 
ATOM    146  HD3 LYS C   9       3.998  22.938  -3.647  1.00  0.00     0.035 H 
ATOM    147  CE  LYS C   9       5.815  24.214  -4.259  1.00  0.00     0.080 C 
ATOM    148  HE2 LYS C   9       6.859  23.621  -4.352  1.00  0.00     0.075 H 
ATOM    149  HE3 LYS C   9       6.388  25.265  -4.206  1.00  0.00     0.075 H 
ATOM    150  NZ  LYS C   9       5.418  24.250  -5.673  1.00  0.00    -0.079 N 
ATOM    151  HZ1 LYS C   9       5.315  23.209  -6.258  1.00  0.00     0.274 HD
ATOM    152  HZ2 LYS C   9       6.155  24.890  -6.375  1.00  0.00     0.274 HD
ATOM    153  HZ3 LYS C   9       4.356  24.778  -5.855  1.00  0.00     0.274 HD
ATOM    154  OXT LYS C   9       5.800  27.791  -2.721  1.00  0.00    -0.646 OA
ENDROOT
TORSDOF 39
