REMARK  0 active torsions:
REMARK  status: ('A' for Active; 'I' for Inactive)
REMARK       I    between atoms: N_1  and  CA_5 
REMARK       I    between atoms: CA_5  and  C_7 
REMARK       I    between atoms: CA_5  and  CB_9 
REMARK       I    between atoms: C_7  and  N_14 
REMARK       I    between atoms: CB_9  and  OG_12 
REMARK       I    between atoms: N_14  and  CA_16 
REMARK       I    between atoms: CA_16  and  C_18 
REMARK       I    between atoms: CA_16  and  CB_20 
REMARK       I    between atoms: C_18  and  N_28 
REMARK       I    between atoms: CB_20  and  CG2_22 
REMARK       I    between atoms: CB_20  and  OG1_26 
REMARK       I    between atoms: N_28  and  CA_30 
REMARK       I    between atoms: CA_50  and  CB_54 
REMARK       I    between atoms: CB_54  and  CG_57 
REMARK       I    between atoms: CA_62  and  CB_66 
REMARK       I    between atoms: CB_66  and  CG_69 
REMARK       I    between atoms: CG_69  and  CD_72 
REMARK       I    between atoms: CA_77  and  C_79 
REMARK       I    between atoms: C_79  and  N_91 
REMARK       I    between atoms: CB_81  and  CG1_83 
REMARK       I    between atoms: N_91  and  CA_93 
REMARK       I    between atoms: CA_93  and  C_95 
REMARK       I    between atoms: CA_93  and  CB_97 
REMARK       I    between atoms: C_95  and  N_111 
REMARK       I    between atoms: CB_97  and  CG_100 
REMARK       I    between atoms: N_111  and  CA_113 
REMARK       I    between atoms: CA_113  and  C_115 
REMARK       I    between atoms: CA_113  and  CB_117 
REMARK       I    between atoms: C_115  and  N_132 
REMARK       I    between atoms: CB_117  and  CG_120 
REMARK       I    between atoms: CZ_125  and  OH_126 
REMARK       I    between atoms: N_132  and  CA_134 
REMARK       I    between atoms: CA_134  and  CB_138 
REMARK       I    between atoms: CA_134  and  C_136 
REMARK       I    between atoms: CB_138  and  CG_141 
REMARK       I    between atoms: CG_141  and  CD_144 
REMARK       I    between atoms: CD_144  and  CE_147 
REMARK       I    between atoms: CE_147  and  NZ_150 
ROOT
ATOM      1  N   SER C   1       3.569  10.245  15.174  1.00  0.00    -0.064 N 
ATOM      2  H   SER C   1       4.742   9.999  15.146  1.00  0.00     0.275 HD
ATOM      3  H2  SER C   1       3.095   9.403  15.887  1.00  0.00     0.275 HD
ATOM      4  H3  SER C   1       3.166   9.944  14.083  1.00  0.00     0.275 HD
ATOM      5  CA  SER C   1       3.063  11.615  15.582  1.00  0.00     0.195 C 
ATOM      6  HA  SER C   1       1.885  11.677  15.752  1.00  0.00     0.102 H 
ATOM      7  C   SER C   1       3.501  12.536  14.439  1.00  0.00     0.251 C 
ATOM      8  O   SER C   1       4.647  12.524  13.986  1.00  0.00    -0.271 OA
ATOM      9  CB  SER C   1       3.799  12.126  16.857  1.00  0.00     0.051 C 
ATOM     10  HB2 SER C   1       3.235  13.127  17.189  1.00  0.00     0.077 H 
ATOM     11  HB3 SER C   1       4.993  12.150  16.874  1.00  0.00     0.077 H 
ATOM     12  OG  SER C   1       3.738  11.226  17.948  1.00  0.00    -0.398 OA
ATOM     13  HG  SER C   1       3.831  11.783  18.989  1.00  0.00     0.209 HD
ATOM     14  N   THR C   2       2.812  13.644  13.648  1.00  0.00    -0.344 N 
ATOM     15  H   THR C   2       1.749  13.366  13.194  1.00  0.00     0.163 HD
ATOM     16  CA  THR C   2       3.515  14.933  13.531  1.00  0.00     0.113 C 
ATOM     17  HA  THR C   2       2.766  15.570  14.209  1.00  0.00     0.091 H 
ATOM     18  C   THR C   2       3.546  15.414  12.096  1.00  0.00     0.243 C 
ATOM     19  O   THR C   2       3.470  14.609  11.163  1.00  0.00    -0.271 OA
ATOM     20  CB  THR C   2       4.961  14.803  14.016  1.00  0.00     0.060 C 
ATOM     21  HB  THR C   2       4.828  15.782  14.698  1.00  0.00     0.086 H 
ATOM     22  CG2 THR C   2       6.125  15.415  13.228  1.00  0.00    -0.050 C 
ATOM     23 1HG2 THR C   2       6.197  14.888  12.154  1.00  0.00     0.031 H 
ATOM     24 2HG2 THR C   2       7.117  15.072  13.806  1.00  0.00     0.031 H 
ATOM     25 3HG2 THR C   2       6.306  16.586  13.084  1.00  0.00     0.031 H 
ATOM     26  OG1 THR C   2       5.297  14.133  15.221  1.00  0.00    -0.393 OA
ATOM     27  HG1 THR C   2       6.257  14.591  15.745  1.00  0.00     0.210 HD
ATOM     28  N   PHE C   3       3.657  16.728  11.905  1.00  0.00    -0.346 N 
ATOM     29  H   PHE C   3       3.532  17.510  12.794  1.00  0.00     0.163 HD
ATOM     30  CA  PHE C   3       3.716  17.304  10.567  1.00  0.00     0.093 C 
ATOM     31  HA  PHE C   3       3.907  16.490   9.717  1.00  0.00     0.088 H 
ATOM     32  C   PHE C   3       4.765  18.407  10.501  1.00  0.00     0.241 C 
ATOM     33  O   PHE C   3       4.507  19.544  10.907  1.00  0.00    -0.271 OA
ATOM     34  CB  PHE C   3       2.363  17.906  10.181  1.00  0.00    -0.017 C 
ATOM     35  HB2 PHE C   3       1.690  17.952  11.172  1.00  0.00     0.043 H 
ATOM     36  HB3 PHE C   3       1.847  16.992   9.597  1.00  0.00     0.043 H 
ATOM     37  CG  PHE C   3       1.735  19.076   9.477  1.00  0.00    -0.073 A 
ATOM     38  CD1 PHE C   3       1.767  20.329  10.100  1.00  0.00    -0.028 A 
ATOM     39  HD1 PHE C   3       1.751  20.285  11.293  1.00  0.00     0.047 H 
ATOM     40  CE1 PHE C   3       0.909  21.334   9.608  1.00  0.00    -0.033 A 
ATOM     41  HE1 PHE C   3       0.123  21.716  10.423  1.00  0.00     0.046 H 
ATOM     42  CZ  PHE C   3       0.235  21.146   8.388  1.00  0.00    -0.099 A 
ATOM     43  HZ  PHE C   3      -0.727  21.768   8.056  1.00  0.00     0.077 H 
ATOM     44  CE2 PHE C   3       0.247  19.906   7.745  1.00  0.00    -0.086 A 
ATOM     45  HE2 PHE C   3      -0.601  19.656   6.949  1.00  0.00     0.083 H 
ATOM     46  CD2 PHE C   3       1.075  18.881   8.244  1.00  0.00    -0.081 A 
ATOM     47  HD2 PHE C   3       1.088  17.925   7.535  1.00  0.00     0.083 H 
ATOM     48  N   ASP C   4       5.951  18.078   9.991  1.00  0.00    -0.345 N 
ATOM     49  H   ASP C   4       5.965  17.028   9.439  1.00  0.00     0.163 HD
ATOM     50  CA  ASP C   4       7.026  19.054   9.859  1.00  0.00     0.098 C 
ATOM     51  HA  ASP C   4       6.785  20.029  10.505  1.00  0.00     0.088 H 
ATOM     52  C   ASP C   4       7.162  19.515   8.414  1.00  0.00     0.241 C 
ATOM     53  O   ASP C   4       8.216  20.021   8.013  1.00  0.00    -0.271 OA
ATOM     54  CB  ASP C   4       8.360  18.447  10.298  1.00  0.00     0.043 C 
ATOM     55  HB2 ASP C   4       8.842  19.544  10.147  1.00  0.00     0.052 H 
ATOM     56  HB3 ASP C   4       9.030  18.293  11.295  1.00  0.00     0.052 H 
ATOM     57  CG  ASP C   4       8.661  16.970  10.095  1.00  0.00     0.175 C 
ATOM     58  OD1 ASP C   4       7.815  16.346   9.418  1.00  0.00    -0.648 OA
ATOM     59  OD2 ASP C   4       9.769  16.537  10.486  1.00  0.00    -0.648 OA
ATOM     60  N   GLU C   5       6.102  19.343   7.625  1.00  0.00    -0.346 N 
ATOM     61  H   GLU C   5       5.148  18.650   7.768  1.00  0.00     0.163 HD
ATOM     62  CA  GLU C   5       6.110  19.763   6.229  1.00  0.00     0.090 C 
ATOM     63  HA  GLU C   5       7.115  20.332   5.935  1.00  0.00     0.087 H 
ATOM     64  C   GLU C   5       5.016  20.790   5.969  1.00  0.00     0.241 C 
ATOM     65  O   GLU C   5       4.756  21.151   4.816  1.00  0.00    -0.271 OA
ATOM     66  CB  GLU C   5       5.874  18.565   5.306  1.00  0.00    -0.029 C 
ATOM     67  HB2 GLU C   5       4.788  18.423   4.820  1.00  0.00     0.037 H 
ATOM     68  HB3 GLU C   5       6.111  17.493   5.787  1.00  0.00     0.037 H 
ATOM     69  CG  GLU C   5       6.784  18.431   4.075  1.00  0.00     0.018 C 
ATOM     70  HG2 GLU C   5       7.960  18.492   4.306  1.00  0.00     0.049 H 
ATOM     71  HG3 GLU C   5       6.608  19.226   3.196  1.00  0.00     0.049 H 
ATOM     72  CD  GLU C   5       6.673  17.095   3.324  1.00  0.00     0.172 C 
ATOM     73  OE1 GLU C   5       5.936  17.061   2.322  1.00  0.00    -0.648 OA
ATOM     74  OE2 GLU C   5       7.570  16.260   3.550  1.00  0.00    -0.648 OA
ATOM     75  N   VAL C   6       4.370  21.263   7.033  1.00  0.00    -0.346 N 
ATOM     76  H   VAL C   6       5.087  21.454   7.963  1.00  0.00     0.163 HD
ATOM     77  CA  VAL C   6       3.316  22.265   6.907  1.00  0.00     0.087 C 
ATOM     78  HA  VAL C   6       2.551  21.949   6.039  1.00  0.00     0.087 H 
ATOM     79  C   VAL C   6       3.827  23.494   6.167  1.00  0.00     0.221 C 
ATOM     80  O   VAL C   6       3.036  24.338   5.733  1.00  0.00    -0.278 OA
ATOM     81  CB  VAL C   6       2.826  22.705   8.288  1.00  0.00    -0.032 C 
ATOM     82  HB  VAL C   6       3.773  23.154   8.874  1.00  0.00     0.042 H 
ATOM     83  CG1 VAL C   6       1.992  23.993   8.357  1.00  0.00    -0.071 C 
ATOM     84 1HG1 VAL C   6       2.571  25.035   8.536  1.00  0.00     0.028 H 
ATOM     85 2HG1 VAL C   6       1.141  24.127   9.202  1.00  0.00     0.028 H 
ATOM     86 3HG1 VAL C   6       1.249  24.233   7.435  1.00  0.00     0.028 H 
ATOM     87  CG2 VAL C   6       2.118  21.570   8.964  1.00  0.00    -0.055 A 
ATOM     88 1HG2 VAL C   6       2.280  22.264   9.956  1.00  0.00     0.030 H 
ATOM     89 2HG2 VAL C   6       3.206  21.103   9.186  1.00  0.00     0.030 H 
ATOM     90 3HG2 VAL C   6       2.003  21.084   7.876  1.00  0.00     0.030 H 
ATOM     91  N   PHE C   7       5.147  23.599   6.023  1.00  0.00    -0.247 NA
ATOM     92  H   PHE C   7       5.781  23.571   7.032  1.00  0.00     0.131 HD
ATOM     93  CA  PHE C   7       5.753  24.720   5.317  1.00  0.00     0.080 C 
ATOM     94  HA  PHE C   7       5.714  25.654   6.061  1.00  0.00     0.079 H 
ATOM     95  C   PHE C   7       5.022  24.992   4.008  1.00  0.00     0.236 C 
ATOM     96  O   PHE C   7       4.824  24.080   3.199  1.00  0.00    -0.272 OA
ATOM     97  CB  PHE C   7       7.219  24.423   4.995  1.00  0.00    -0.018 C 
ATOM     98  HB2 PHE C   7       7.784  25.088   5.816  1.00  0.00     0.043 H 
ATOM     99  HB3 PHE C   7       7.651  23.336   5.253  1.00  0.00     0.043 H 
ATOM    100  CG  PHE C   7       8.091  24.498   3.754  1.00  0.00    -0.056 A 
ATOM    101  CD1 PHE C   7       7.849  23.686   2.636  1.00  0.00    -0.077 A 
ATOM    102  HD1 PHE C   7       6.987  22.894   2.441  1.00  0.00     0.084 H 
ATOM    103  CE1 PHE C   7       8.816  23.595   1.612  1.00  0.00    -0.082 A 
ATOM    104  HE1 PHE C   7       8.955  22.666   0.883  1.00  0.00     0.083 H 
ATOM    105  CZ  PHE C   7       9.936  24.437   1.637  1.00  0.00    -0.083 A 
ATOM    106  HZ  PHE C   7      10.682  24.490   0.714  1.00  0.00     0.083 H 
ATOM    107  CE2 PHE C   7      10.171  25.265   2.737  1.00  0.00    -0.082 A 
ATOM    108  HE2 PHE C   7      11.228  25.805   2.805  1.00  0.00     0.083 H 
ATOM    109  CD2 PHE C   7       9.204  25.360   3.758  1.00  0.00    -0.077 A 
ATOM    110  HD2 PHE C   7       9.456  26.304   4.434  1.00  0.00     0.084 H 
ATOM    111  N   TYR C   8       4.620  26.244   3.793  1.00  0.00    -0.346 N 
ATOM    112  H   TYR C   8       5.191  27.143   4.324  1.00  0.00     0.163 HD
ATOM    113  CA  TYR C   8       3.916  26.633   2.546  1.00  0.00     0.093 C 
ATOM    114  HA  TYR C   8       2.984  25.892   2.464  1.00  0.00     0.088 H 
ATOM    115  C   TYR C   8       4.909  26.665   1.367  1.00  0.00     0.241 C 
ATOM    116  O   TYR C   8       6.025  27.178   1.500  1.00  0.00    -0.271 OA
ATOM    117  CB  TYR C   8       3.288  28.020   2.694  1.00  0.00    -0.014 C 
ATOM    118  HB2 TYR C   8       4.052  28.901   2.421  1.00  0.00     0.043 H 
ATOM    119  HB3 TYR C   8       2.422  28.175   1.875  1.00  0.00     0.043 H 
ATOM    120  CG  TYR C   8       2.585  28.450   3.955  1.00  0.00    -0.056 A 
ATOM    121  CD1 TYR C   8       1.360  27.884   4.353  1.00  0.00    -0.074 A 
ATOM    122  HD1 TYR C   8       0.491  27.500   3.639  1.00  0.00     0.084 H 
ATOM    123  CE1 TYR C   8       0.844  28.181   5.626  1.00  0.00    -0.051 A 
ATOM    124  HE1 TYR C   8      -0.216  27.793   5.998  1.00  0.00     0.087 H 
ATOM    125  CZ  TYR C   8       1.554  29.054   6.478  1.00  0.00     0.065 A 
ATOM    126  OH  TYR C   8       1.129  29.262   7.756  1.00  0.00    -0.361 OA
ATOM    127  HH  TYR C   8       1.997  29.148   8.548  1.00  0.00     0.217 HD
ATOM    128  CE2 TYR C   8       2.708  29.718   6.025  1.00  0.00    -0.051 A 
ATOM    129  HE2 TYR C   8       3.065  30.717   6.560  1.00  0.00     0.087 H 
ATOM    130  CD2 TYR C   8       3.204  29.437   4.743  1.00  0.00    -0.074 A 
ATOM    131  HD2 TYR C   8       4.044  30.220   4.435  1.00  0.00     0.084 H 
ATOM    132  N   LYS C   9       4.546  26.132   0.205  1.00  0.00    -0.345 N 
ATOM    133  H   LYS C   9       3.405  25.825   0.076  1.00  0.00     0.163 HD
ATOM    134  CA  LYS C   9       5.446  26.214  -0.946  1.00  0.00     0.096 C 
ATOM    135  HA  LYS C   9       6.597  26.059  -0.681  1.00  0.00     0.089 H 
ATOM    136  C   LYS C   9       5.417  27.680  -1.532  1.00  0.00     0.196 C 
ATOM    137  O   LYS C   9       4.546  28.498  -1.140  1.00  0.00    -0.646 OA
ATOM    138  CB  LYS C   9       5.010  25.222  -2.159  1.00  0.00    -0.037 C 
ATOM    139  HB2 LYS C   9       5.120  25.925  -3.123  1.00  0.00     0.036 H 
ATOM    140  HB3 LYS C   9       3.824  25.102  -2.059  1.00  0.00     0.036 H 
ATOM    141  CG  LYS C   9       5.787  23.926  -2.415  1.00  0.00    -0.061 C 
ATOM    142  HG2 LYS C   9       6.938  24.125  -2.674  1.00  0.00     0.033 H 
ATOM    143  HG3 LYS C   9       5.747  23.321  -1.384  1.00  0.00     0.033 H 
ATOM    144  CD  LYS C   9       4.980  23.400  -3.606  1.00  0.00    -0.043 C 
ATOM    145  HD2 LYS C   9       4.760  24.140  -4.519  1.00  0.00     0.035 H 
ATOM    146  HD3 LYS C   9       3.880  23.036  -3.295  1.00  0.00     0.035 H 
ATOM    147  CE  LYS C   9       5.562  22.119  -4.153  1.00  0.00     0.080 C 
ATOM    148  HE2 LYS C   9       6.039  21.462  -3.268  1.00  0.00     0.075 H 
ATOM    149  HE3 LYS C   9       4.783  21.300  -4.579  1.00  0.00     0.075 H 
ATOM    150  NZ  LYS C   9       6.376  22.513  -5.310  1.00  0.00    -0.079 N 
ATOM    151  HZ1 LYS C   9       7.292  21.729  -5.316  1.00  0.00     0.274 HD
ATOM    152  HZ2 LYS C   9       5.826  22.405  -6.374  1.00  0.00     0.274 HD
ATOM    153  HZ3 LYS C   9       7.010  23.530  -5.351  1.00  0.00     0.274 HD
ATOM    154  OXT LYS C   9       6.229  28.067  -2.374  1.00  0.00    -0.646 OA
ENDROOT
TORSDOF 33
