REMARK  0 active torsions:
REMARK  status: ('A' for Active; 'I' for Inactive)
REMARK       I    between atoms: N_1  and  CA_5 
REMARK       I    between atoms: CA_5  and  CB_9 
REMARK       I    between atoms: CA_5  and  C_7 
REMARK       I    between atoms: C_7  and  N_14 
REMARK       I    between atoms: CB_9  and  OG_12 
REMARK       I    between atoms: N_14  and  CA_16 
REMARK       I    between atoms: CA_16  and  CB_20 
REMARK       I    between atoms: CA_16  and  C_18 
REMARK       I    between atoms: C_18  and  N_28 
REMARK       I    between atoms: CB_20  and  OG1_26 
REMARK       I    between atoms: CB_20  and  CG2_22 
REMARK       I    between atoms: N_28  and  CA_30 
REMARK       I    between atoms: CA_50  and  CB_54 
REMARK       I    between atoms: CB_54  and  CG_57 
REMARK       I    between atoms: CB_66  and  CG_69 
REMARK       I    between atoms: CG_69  and  CD_72 
REMARK       I    between atoms: N_75  and  CA_77 
REMARK       I    between atoms: CA_77  and  CB_81 
REMARK       I    between atoms: CA_77  and  C_79 
REMARK       I    between atoms: C_79  and  N_91 
REMARK       I    between atoms: CB_81  and  CG2_87 
REMARK       I    between atoms: CB_81  and  CG1_83 
REMARK       I    between atoms: N_91  and  CA_93 
REMARK       I    between atoms: CA_93  and  CB_97 
REMARK       I    between atoms: CA_93  and  C_95 
REMARK       I    between atoms: C_95  and  N_111 
REMARK       I    between atoms: CB_97  and  CG_100 
REMARK       I    between atoms: N_111  and  CA_113 
REMARK       I    between atoms: CA_113  and  CB_117 
REMARK       I    between atoms: CA_113  and  C_115 
REMARK       I    between atoms: C_115  and  N_132 
REMARK       I    between atoms: CB_117  and  CG_120 
REMARK       I    between atoms: CZ_125  and  OH_126 
REMARK       I    between atoms: N_132  and  CA_134 
REMARK       I    between atoms: CA_134  and  C_136 
REMARK       I    between atoms: CA_134  and  CB_138 
REMARK       I    between atoms: CB_138  and  CG_141 
REMARK       I    between atoms: CG_141  and  CD_144 
REMARK       I    between atoms: CD_144  and  CE_147 
REMARK       I    between atoms: CE_147  and  NZ_150 
ROOT
ATOM      1  N   SER C   1       3.569  10.245  15.174  1.00  0.00    -0.064 N 
ATOM      2  H   SER C   1       3.318   9.402  15.989  1.00  0.00     0.275 HD
ATOM      3  H2  SER C   1       4.718  10.067  14.888  1.00  0.00     0.275 HD
ATOM      4  H3  SER C   1       2.935   9.885  14.223  1.00  0.00     0.275 HD
ATOM      5  CA  SER C   1       3.063  11.615  15.582  1.00  0.00     0.195 C 
ATOM      6  HA  SER C   1       1.893  11.534  15.790  1.00  0.00     0.102 H 
ATOM      7  C   SER C   1       3.501  12.536  14.439  1.00  0.00     0.251 C 
ATOM      8  O   SER C   1       4.647  12.524  13.986  1.00  0.00    -0.271 OA
ATOM      9  CB  SER C   1       3.799  12.126  16.857  1.00  0.00     0.051 C 
ATOM     10  HB2 SER C   1       3.219  13.072  17.302  1.00  0.00     0.077 H 
ATOM     11  HB3 SER C   1       4.956  12.384  16.710  1.00  0.00     0.077 H 
ATOM     12  OG  SER C   1       3.724  11.209  17.930  1.00  0.00    -0.398 OA
ATOM     13  HG  SER C   1       4.386  11.563  18.845  1.00  0.00     0.209 HD
ATOM     14  N   THR C   2       2.599  13.861  14.193  1.00  0.00    -0.344 N 
ATOM     15  H   THR C   2       1.569  13.880  14.782  1.00  0.00     0.163 HD
ATOM     16  CA  THR C   2       2.975  14.993  13.329  1.00  0.00     0.113 C 
ATOM     17  HA  THR C   2       3.914  14.523  12.763  1.00  0.00     0.091 H 
ATOM     18  C   THR C   2       3.331  16.215  14.148  1.00  0.00     0.243 C 
ATOM     19  O   THR C   2       2.865  16.368  15.282  1.00  0.00    -0.271 OA
ATOM     20  CB  THR C   2       1.818  15.368  12.401  1.00  0.00     0.060 C 
ATOM     21  HB  THR C   2       2.440  15.297  11.377  1.00  0.00     0.086 H 
ATOM     22  CG2 THR C   2       1.375  16.812  12.176  1.00  0.00    -0.050 C 
ATOM     23 1HG2 THR C   2       0.618  16.763  11.242  1.00  0.00     0.031 H 
ATOM     24 2HG2 THR C   2       2.077  17.676  11.741  1.00  0.00     0.031 H 
ATOM     25 3HG2 THR C   2       0.632  17.112  13.065  1.00  0.00     0.031 H 
ATOM     26  OG1 THR C   2       1.038  14.333  11.834  1.00  0.00    -0.393 OA
ATOM     27  HG1 THR C   2      -0.014  14.251  12.369  1.00  0.00     0.210 HD
ATOM     28  N   PHE C   3       4.157  17.096  13.585  1.00  0.00    -0.346 N 
ATOM     29  H   PHE C   3       4.787  16.733  12.644  1.00  0.00     0.163 HD
ATOM     30  CA  PHE C   3       4.554  18.319  14.271  1.00  0.00     0.088 C 
ATOM     31  HA  PHE C   3       4.750  17.963  15.393  1.00  0.00     0.087 H 
ATOM     32  C   PHE C   3       3.478  19.389  14.134  1.00  0.00     0.221 C 
ATOM     33  O   PHE C   3       2.578  19.269  13.297  1.00  0.00    -0.278 OA
ATOM     34  CB  PHE C   3       5.854  18.869  13.680  1.00  0.00    -0.015 C 
ATOM     35  HB2 PHE C   3       6.436  18.206  12.870  1.00  0.00     0.043 H 
ATOM     36  HB3 PHE C   3       6.611  18.648  14.583  1.00  0.00     0.043 H 
ATOM     37  CG  PHE C   3       6.164  20.201  13.119  1.00  0.00    -0.057 A 
ATOM     38  CD1 PHE C   3       5.430  20.606  12.014  1.00  0.00    -0.068 A 
ATOM     39  HD1 PHE C   3       4.896  19.754  11.374  1.00  0.00     0.081 H 
ATOM     40  CE1 PHE C   3       5.908  21.722  11.330  1.00  0.00     0.070 A 
ATOM     41  HE1 PHE C   3       6.416  21.198  10.379  1.00  0.00     0.091 H 
ATOM     42  CZ  PHE C   3       6.920  22.505  11.909  1.00  0.00    -0.007 A 
ATOM     43  HZ  PHE C   3       7.835  22.468  11.137  1.00  0.00     0.050 H 
ATOM     44  CE2 PHE C   3       7.619  22.104  13.057  1.00  0.00    -0.096 A 
ATOM     45  HE2 PHE C   3       8.779  22.259  13.296  1.00  0.00     0.077 H 
ATOM     46  CD2 PHE C   3       7.189  20.950  13.708  1.00  0.00    -0.080 A 
ATOM     47  HD2 PHE C   3       7.865  20.664  14.646  1.00  0.00     0.083 H 
ATOM     48  N   ASP C   4       3.563  20.436  14.953  1.00  0.00    -0.248 NA
ATOM     49  H   ASP C   4       3.677  19.942  16.030  1.00  0.00     0.131 HD
ATOM     50  CA  ASP C   4       2.601  21.530  14.900  1.00  0.00     0.080 C 
ATOM     51  HA  ASP C   4       1.477  21.279  14.592  1.00  0.00     0.079 H 
ATOM     52  C   ASP C   4       3.072  22.617  13.942  1.00  0.00     0.216 C 
ATOM     53  O   ASP C   4       2.384  23.624  13.749  1.00  0.00    -0.278 OA
ATOM     54  CB  ASP C   4       2.421  22.156  16.284  1.00  0.00     0.038 C 
ATOM     55  HB2 ASP C   4       1.982  23.268  16.247  1.00  0.00     0.052 H 
ATOM     56  HB3 ASP C   4       1.624  21.564  16.949  1.00  0.00     0.052 H 
ATOM     57  CG  ASP C   4       3.560  22.267  17.286  1.00  0.00     0.174 C 
ATOM     58  OD1 ASP C   4       4.676  21.921  16.816  1.00  0.00    -0.648 OA
ATOM     59  OD2 ASP C   4       3.324  22.801  18.402  1.00  0.00    -0.648 OA
ATOM     60  N   GLU C   5       4.244  22.420  13.339  1.00  0.00    -0.249 NA
ATOM     61  H   GLU C   5       4.889  22.283  14.332  1.00  0.00     0.131 HD
ATOM     62  CA  GLU C   5       4.787  23.383  12.388  1.00  0.00     0.061 C 
ATOM     63  HA  GLU C   5       4.089  24.341  12.557  1.00  0.00     0.077 H 
ATOM     64  C   GLU C   5       4.463  22.969  10.958  1.00  0.00     0.133 C 
ATOM     65  O   GLU C   5       4.658  21.809  10.581  1.00  0.00    -0.328 OA
ATOM     66  CB  GLU C   5       6.308  23.477  12.528  1.00  0.00    -0.028 C 
ATOM     67  HB2 GLU C   5       5.884  24.455  13.124  1.00  0.00     0.037 H 
ATOM     68  HB3 GLU C   5       6.595  23.274  13.689  1.00  0.00     0.037 H 
ATOM     69  CG  GLU C   5       6.972  24.717  11.885  1.00  0.00     0.018 C 
ATOM     70  HG2 GLU C   5       6.686  25.878  12.012  1.00  0.00     0.049 H 
ATOM     71  HG3 GLU C   5       7.108  24.792  10.698  1.00  0.00     0.049 H 
ATOM     72  CD  GLU C   5       8.476  24.878  12.150  1.00  0.00     0.172 C 
ATOM     73  OE1 GLU C   5       9.290  24.450  11.294  1.00  0.00    -0.648 OA
ATOM     74  OE2 GLU C   5       8.792  25.623  13.104  1.00  0.00    -0.648 OA
ATOM     75  N   VAL C   6       3.969  23.911  10.157  1.00  0.00    -0.359 N 
ATOM     76  H   VAL C   6       3.906  25.078  10.378  1.00  0.00     0.162 HD
ATOM     77  CA  VAL C   6       3.641  23.635   8.762  1.00  0.00     0.091 C 
ATOM     78  HA  VAL C   6       3.796  22.484   8.494  1.00  0.00     0.088 H 
ATOM     79  C   VAL C   6       4.601  24.361   7.829  1.00  0.00     0.241 C 
ATOM     80  O   VAL C   6       5.417  25.174   8.276  1.00  0.00    -0.271 OA
ATOM     81  CB  VAL C   6       2.218  24.100   8.443  1.00  0.00    -0.033 C 
ATOM     82  HB  VAL C   6       1.720  23.038   8.201  1.00  0.00     0.042 H 
ATOM     83  CG1 VAL C   6       1.952  24.735   7.081  1.00  0.00    -0.071 C 
ATOM     84 1HG1 VAL C   6       2.592  25.723   6.875  1.00  0.00     0.028 H 
ATOM     85 2HG1 VAL C   6       0.853  25.220   7.102  1.00  0.00     0.028 H 
ATOM     86 3HG1 VAL C   6       1.761  23.990   6.163  1.00  0.00     0.028 H 
ATOM     87  CG2 VAL C   6       1.205  24.403   9.552  1.00  0.00    -0.071 C 
ATOM     88 1HG2 VAL C   6       1.169  23.712  10.530  1.00  0.00     0.028 H 
ATOM     89 2HG2 VAL C   6       0.055  24.279   9.224  1.00  0.00     0.028 H 
ATOM     90 3HG2 VAL C   6       1.251  25.541   9.925  1.00  0.00     0.028 H 
ATOM     91  N   PHE C   7       4.506  24.072   6.532  1.00  0.00    -0.346 N 
ATOM     92  H   PHE C   7       4.139  22.994   6.184  1.00  0.00     0.163 HD
ATOM     93  CA  PHE C   7       5.357  24.716   5.539  1.00  0.00     0.093 C 
ATOM     94  HA  PHE C   7       5.761  25.746   5.984  1.00  0.00     0.088 H 
ATOM     95  C   PHE C   7       4.577  24.998   4.261  1.00  0.00     0.241 C 
ATOM     96  O   PHE C   7       3.941  24.098   3.703  1.00  0.00    -0.271 OA
ATOM     97  CB  PHE C   7       6.546  23.819   5.187  1.00  0.00    -0.014 C 
ATOM     98  HB2 PHE C   7       6.528  22.742   5.706  1.00  0.00     0.043 H 
ATOM     99  HB3 PHE C   7       7.454  24.356   5.751  1.00  0.00     0.043 H 
ATOM    100  CG  PHE C   7       7.155  23.312   3.890  1.00  0.00    -0.056 A 
ATOM    101  CD1 PHE C   7       6.476  22.464   2.996  1.00  0.00    -0.077 A 
ATOM    102  HD1 PHE C   7       5.397  21.976   3.074  1.00  0.00     0.084 H 
ATOM    103  CE1 PHE C   7       7.190  21.802   1.972  1.00  0.00    -0.082 A 
ATOM    104  HE1 PHE C   7       6.849  20.751   1.533  1.00  0.00     0.083 H 
ATOM    105  CZ  PHE C   7       8.525  22.134   1.718  1.00  0.00    -0.083 A 
ATOM    106  HZ  PHE C   7       9.071  21.703   0.755  1.00  0.00     0.083 H 
ATOM    107  CE2 PHE C   7       9.202  23.004   2.585  1.00  0.00    -0.082 A 
ATOM    108  HE2 PHE C   7      10.373  23.127   2.427  1.00  0.00     0.083 H 
ATOM    109  CD2 PHE C   7       8.491  23.667   3.596  1.00  0.00    -0.077 A 
ATOM    110  HD2 PHE C   7       9.205  24.491   4.069  1.00  0.00     0.084 H 
ATOM    111  N   TYR C   8       4.620  26.244   3.793  1.00  0.00    -0.346 N 
ATOM    112  H   TYR C   8       5.438  27.043   4.118  1.00  0.00     0.163 HD
ATOM    113  CA  TYR C   8       3.916  26.633   2.546  1.00  0.00     0.093 C 
ATOM    114  HA  TYR C   8       3.008  25.881   2.386  1.00  0.00     0.088 H 
ATOM    115  C   TYR C   8       4.909  26.665   1.367  1.00  0.00     0.241 C 
ATOM    116  O   TYR C   8       6.025  27.178   1.500  1.00  0.00    -0.271 OA
ATOM    117  CB  TYR C   8       3.288  28.020   2.694  1.00  0.00    -0.014 C 
ATOM    118  HB2 TYR C   8       2.476  28.151   1.825  1.00  0.00     0.043 H 
ATOM    119  HB3 TYR C   8       4.050  28.902   2.433  1.00  0.00     0.043 H 
ATOM    120  CG  TYR C   8       2.588  28.459   3.966  1.00  0.00    -0.056 A 
ATOM    121  CD1 TYR C   8       1.362  27.903   4.353  1.00  0.00    -0.074 A 
ATOM    122  HD1 TYR C   8       0.546  27.428   3.632  1.00  0.00     0.084 H 
ATOM    123  CE1 TYR C   8       0.834  28.205   5.632  1.00  0.00    -0.051 A 
ATOM    124  HE1 TYR C   8      -0.324  28.062   5.859  1.00  0.00     0.087 H 
ATOM    125  CZ  TYR C   8       1.540  29.068   6.485  1.00  0.00     0.065 A 
ATOM    126  OH  TYR C   8       1.107  29.274   7.770  1.00  0.00    -0.361 OA
ATOM    127  HH  TYR C   8       1.402  30.348   8.161  1.00  0.00     0.217 HD
ATOM    128  CE2 TYR C   8       2.695  29.733   6.037  1.00  0.00    -0.051 A 
ATOM    129  HE2 TYR C   8       3.287  30.570   6.637  1.00  0.00     0.087 H 
ATOM    130  CD2 TYR C   8       3.194  29.453   4.748  1.00  0.00    -0.074 A 
ATOM    131  HD2 TYR C   8       3.962  30.304   4.433  1.00  0.00     0.084 H 
ATOM    132  N   LYS C   9       4.546  26.132   0.205  1.00  0.00    -0.345 N 
ATOM    133  H   LYS C   9       3.432  25.752   0.047  1.00  0.00     0.163 HD
ATOM    134  CA  LYS C   9       5.446  26.214  -0.946  1.00  0.00     0.096 C 
ATOM    135  HA  LYS C   9       6.597  26.031  -0.702  1.00  0.00     0.089 H 
ATOM    136  C   LYS C   9       5.417  27.680  -1.532  1.00  0.00     0.196 C 
ATOM    137  O   LYS C   9       4.546  28.498  -1.140  1.00  0.00    -0.646 OA
ATOM    138  CB  LYS C   9       5.010  25.222  -2.159  1.00  0.00    -0.037 C 
ATOM    139  HB2 LYS C   9       3.823  25.128  -2.081  1.00  0.00     0.036 H 
ATOM    140  HB3 LYS C   9       5.208  25.924  -3.107  1.00  0.00     0.036 H 
ATOM    141  CG  LYS C   9       5.790  23.944  -2.423  1.00  0.00    -0.061 C 
ATOM    142  HG2 LYS C   9       6.941  24.101  -2.698  1.00  0.00     0.033 H 
ATOM    143  HG3 LYS C   9       5.761  23.316  -1.408  1.00  0.00     0.033 H 
ATOM    144  CD  LYS C   9       5.002  23.380  -3.606  1.00  0.00    -0.043 C 
ATOM    145  HD2 LYS C   9       3.949  22.982  -3.197  1.00  0.00     0.035 H 
ATOM    146  HD3 LYS C   9       4.656  24.095  -4.501  1.00  0.00     0.035 H 
ATOM    147  CE  LYS C   9       5.567  22.089  -4.178  1.00  0.00     0.080 C 
ATOM    148  HE2 LYS C   9       6.162  21.366  -3.437  1.00  0.00     0.075 H 
ATOM    149  HE3 LYS C   9       4.694  21.370  -4.577  1.00  0.00     0.075 H 
ATOM    150  NZ  LYS C   9       6.388  22.483  -5.327  1.00  0.00    -0.079 N 
ATOM    151  HZ1 LYS C   9       6.657  21.494  -5.953  1.00  0.00     0.274 HD
ATOM    152  HZ2 LYS C   9       5.981  23.183  -6.213  1.00  0.00     0.274 HD
ATOM    153  HZ3 LYS C   9       7.477  22.927  -5.093  1.00  0.00     0.274 HD
ATOM    154  OXT LYS C   9       6.184  28.188  -2.379  1.00  0.00    -0.646 OA
ENDROOT
TORSDOF 35
