REMARK  0 active torsions:
REMARK  status: ('A' for Active; 'I' for Inactive)
REMARK       I    between atoms: N_1  and  CA_5 
REMARK       I    between atoms: CA_5  and  CB_9 
REMARK       I    between atoms: CA_5  and  C_7 
REMARK       I    between atoms: C_7  and  N_14 
REMARK       I    between atoms: CB_9  and  OG_12 
REMARK       I    between atoms: N_14  and  CA_16 
REMARK       I    between atoms: CA_16  and  C_18 
REMARK       I    between atoms: CA_16  and  CB_20 
REMARK       I    between atoms: C_18  and  N_28 
REMARK       I    between atoms: CB_20  and  CG2_22 
REMARK       I    between atoms: CB_20  and  OG1_26 
REMARK       I    between atoms: N_28  and  CA_30 
REMARK       I    between atoms: CA_30  and  CB_34 
REMARK       I    between atoms: CA_30  and  C_32 
REMARK       I    between atoms: C_32  and  N_48 
REMARK       I    between atoms: CB_34  and  CG_37 
REMARK       I    between atoms: N_48  and  CA_50 
REMARK       I    between atoms: CA_50  and  C_52 
REMARK       I    between atoms: CA_50  and  CB_54 
REMARK       I    between atoms: C_52  and  N_60 
REMARK       I    between atoms: CB_54  and  CG_57 
REMARK       I    between atoms: N_60  and  CA_62 
REMARK       I    between atoms: CA_62  and  C_64 
REMARK       I    between atoms: CA_62  and  CB_66 
REMARK       I    between atoms: C_64  and  N_75 
REMARK       I    between atoms: CB_66  and  CG_69 
REMARK       I    between atoms: CG_69  and  CD_72 
REMARK       I    between atoms: N_75  and  CA_77 
REMARK       I    between atoms: CA_77  and  CB_81 
REMARK       I    between atoms: CA_77  and  C_79 
REMARK       I    between atoms: C_79  and  N_91 
REMARK       I    between atoms: CB_81  and  CG2_87 
REMARK       I    between atoms: CB_81  and  CG1_83 
REMARK       I    between atoms: N_91  and  CA_93 
REMARK       I    between atoms: CA_93  and  CB_97 
REMARK       I    between atoms: CA_93  and  C_95 
REMARK       I    between atoms: C_95  and  N_111 
REMARK       I    between atoms: CB_97  and  CG_100 
REMARK       I    between atoms: N_111  and  CA_113 
REMARK       I    between atoms: CA_113  and  C_115 
REMARK       I    between atoms: CA_113  and  CB_117 
REMARK       I    between atoms: C_115  and  N_132 
REMARK       I    between atoms: CB_117  and  CG_120 
REMARK       I    between atoms: CZ_125  and  OH_126 
REMARK       I    between atoms: N_132  and  CA_134 
REMARK       I    between atoms: CA_134  and  CB_138 
REMARK       I    between atoms: CA_134  and  C_136 
REMARK       I    between atoms: CB_138  and  CG_141 
REMARK       I    between atoms: CG_141  and  CD_144 
REMARK       I    between atoms: CD_144  and  CE_147 
REMARK       I    between atoms: CE_147  and  NZ_150 
ROOT
ATOM      1  N   SER C   1       3.569  10.245  15.174  1.00  0.00    -0.064 N 
ATOM      2  H   SER C   1       4.736   9.979  15.214  1.00  0.00     0.275 HD
ATOM      3  H2  SER C   1       3.235   9.955  14.060  1.00  0.00     0.275 HD
ATOM      4  H3  SER C   1       3.056   9.390  15.840  1.00  0.00     0.275 HD
ATOM      5  CA  SER C   1       3.063  11.615  15.582  1.00  0.00     0.195 C 
ATOM      6  HA  SER C   1       1.881  11.544  15.718  1.00  0.00     0.102 H 
ATOM      7  C   SER C   1       3.501  12.536  14.439  1.00  0.00     0.251 C 
ATOM      8  O   SER C   1       4.647  12.524  13.986  1.00  0.00    -0.271 OA
ATOM      9  CB  SER C   1       3.799  12.126  16.857  1.00  0.00     0.051 C 
ATOM     10  HB2 SER C   1       4.963  12.364  16.729  1.00  0.00     0.077 H 
ATOM     11  HB3 SER C   1       3.226  13.054  17.344  1.00  0.00     0.077 H 
ATOM     12  OG  SER C   1       3.758  11.238  17.958  1.00  0.00    -0.398 OA
ATOM     13  HG  SER C   1       4.352  11.688  18.881  1.00  0.00     0.209 HD
ATOM     14  N   THR C   2       2.988  13.772  14.414  1.00  0.00    -0.344 N 
ATOM     15  H   THR C   2       3.692  14.482  15.062  1.00  0.00     0.163 HD
ATOM     16  CA  THR C   2       2.039  14.617  13.669  1.00  0.00     0.113 C 
ATOM     17  HA  THR C   2       1.574  13.754  12.987  1.00  0.00     0.091 H 
ATOM     18  C   THR C   2       2.763  15.626  12.803  1.00  0.00     0.243 C 
ATOM     19  O   THR C   2       3.901  16.004  13.098  1.00  0.00    -0.271 OA
ATOM     20  CB  THR C   2       1.133  15.387  14.633  1.00  0.00     0.060 C 
ATOM     21  HB  THR C   2       0.109  15.022  14.124  1.00  0.00     0.086 H 
ATOM     22  CG2 THR C   2       0.818  16.872  14.453  1.00  0.00    -0.050 C 
ATOM     23 1HG2 THR C   2       1.779  17.419  14.899  1.00  0.00     0.031 H 
ATOM     24 2HG2 THR C   2       0.409  17.291  13.411  1.00  0.00     0.031 H 
ATOM     25 3HG2 THR C   2      -0.094  17.169  15.174  1.00  0.00     0.031 H 
ATOM     26  OG1 THR C   2       0.640  14.756  15.803  1.00  0.00    -0.393 OA
ATOM     27  HG1 THR C   2       1.065  15.292  16.770  1.00  0.00     0.210 HD
ATOM     28  N   PHE C   3       2.113  16.073  11.729  1.00  0.00    -0.346 N 
ATOM     29  H   PHE C   3       1.093  15.584  11.361  1.00  0.00     0.163 HD
ATOM     30  CA  PHE C   3       2.703  17.060  10.833  1.00  0.00     0.093 C 
ATOM     31  HA  PHE C   3       3.841  17.306  11.092  1.00  0.00     0.088 H 
ATOM     32  C   PHE C   3       1.856  18.325  10.793  1.00  0.00     0.241 C 
ATOM     33  O   PHE C   3       0.840  18.379  10.092  1.00  0.00    -0.271 OA
ATOM     34  CB  PHE C   3       2.801  16.504   9.411  1.00  0.00    -0.014 C 
ATOM     35  HB2 PHE C   3       2.162  15.500   9.276  1.00  0.00     0.043 H 
ATOM     36  HB3 PHE C   3       3.903  16.033   9.384  1.00  0.00     0.043 H 
ATOM     37  CG  PHE C   3       2.632  16.912   7.971  1.00  0.00    -0.056 A 
ATOM     38  CD1 PHE C   3       1.344  17.161   7.486  1.00  0.00    -0.077 A 
ATOM     39  HD1 PHE C   3       0.297  16.857   7.960  1.00  0.00     0.084 H 
ATOM     40  CE1 PHE C   3       1.143  17.287   6.108  1.00  0.00    -0.082 A 
ATOM     41  HE1 PHE C   3       0.077  17.170   5.596  1.00  0.00     0.083 H 
ATOM     42  CZ  PHE C   3       2.255  17.333   5.253  1.00  0.00    -0.083 A 
ATOM     43  HZ  PHE C   3       2.089  17.332   4.077  1.00  0.00     0.083 H 
ATOM     44  CE2 PHE C   3       3.550  17.100   5.741  1.00  0.00    -0.082 A 
ATOM     45  HE2 PHE C   3       4.402  16.799   4.970  1.00  0.00     0.083 H 
ATOM     46  CD2 PHE C   3       3.755  16.979   7.120  1.00  0.00    -0.077 A 
ATOM     47  HD2 PHE C   3       4.910  17.072   7.384  1.00  0.00     0.084 H 
ATOM     48  N   ASP C   4       2.266  19.347  11.543  1.00  0.00    -0.345 N 
ATOM     49  H   ASP C   4       3.446  19.419  11.669  1.00  0.00     0.163 HD
ATOM     50  CA  ASP C   4       1.547  20.615  11.569  1.00  0.00     0.098 C 
ATOM     51  HA  ASP C   4       0.568  20.620  10.889  1.00  0.00     0.088 H 
ATOM     52  C   ASP C   4       2.435  21.749  11.074  1.00  0.00     0.241 C 
ATOM     53  O   ASP C   4       3.632  21.554  10.842  1.00  0.00    -0.271 OA
ATOM     54  CB  ASP C   4       1.095  20.947  12.993  1.00  0.00     0.043 C 
ATOM     55  HB2 ASP C   4       0.009  20.489  13.199  1.00  0.00     0.052 H 
ATOM     56  HB3 ASP C   4       0.965  22.072  13.374  1.00  0.00     0.052 H 
ATOM     57  CG  ASP C   4       1.964  20.382  14.129  1.00  0.00     0.175 C 
ATOM     58  OD1 ASP C   4       3.000  19.769  13.798  1.00  0.00    -0.648 OA
ATOM     59  OD2 ASP C   4       1.659  20.688  15.305  1.00  0.00    -0.648 OA
ATOM     60  N   GLU C   5       1.856  22.938  10.909  1.00  0.00    -0.346 N 
ATOM     61  H   GLU C   5       0.693  23.182  10.974  1.00  0.00     0.163 HD
ATOM     62  CA  GLU C   5       2.610  24.101  10.458  1.00  0.00     0.090 C 
ATOM     63  HA  GLU C   5       1.853  24.937  10.069  1.00  0.00     0.087 H 
ATOM     64  C   GLU C   5       3.498  23.742   9.273  1.00  0.00     0.241 C 
ATOM     65  O   GLU C   5       4.696  24.040   9.274  1.00  0.00    -0.271 OA
ATOM     66  CB  GLU C   5       3.503  24.632  11.582  1.00  0.00    -0.029 C 
ATOM     67  HB2 GLU C   5       4.639  24.278  11.698  1.00  0.00     0.037 H 
ATOM     68  HB3 GLU C   5       3.041  24.355  12.650  1.00  0.00     0.037 H 
ATOM     69  CG  GLU C   5       3.512  26.172  11.677  1.00  0.00     0.018 C 
ATOM     70  HG2 GLU C   5       4.197  26.682  10.840  1.00  0.00     0.049 H 
ATOM     71  HG3 GLU C   5       2.450  26.718  11.621  1.00  0.00     0.049 H 
ATOM     72  CD  GLU C   5       4.053  26.802  12.967  1.00  0.00     0.172 C 
ATOM     73  OE1 GLU C   5       5.257  27.140  12.983  1.00  0.00    -0.648 OA
ATOM     74  OE2 GLU C   5       3.203  27.256  13.761  1.00  0.00    -0.648 OA
ATOM     75  N   VAL C   6       2.917  23.103   8.259  1.00  0.00    -0.346 N 
ATOM     76  H   VAL C   6       1.832  23.525   8.020  1.00  0.00     0.163 HD
ATOM     77  CA  VAL C   6       3.663  22.725   7.063  1.00  0.00     0.092 C 
ATOM     78  HA  VAL C   6       4.474  22.025   7.591  1.00  0.00     0.088 H 
ATOM     79  C   VAL C   6       4.255  23.955   6.387  1.00  0.00     0.241 C 
ATOM     80  O   VAL C   6       3.622  25.015   6.347  1.00  0.00    -0.271 OA
ATOM     81  CB  VAL C   6       2.748  22.020   6.060  1.00  0.00    -0.033 C 
ATOM     82  HB  VAL C   6       3.442  21.042   6.031  1.00  0.00     0.042 H 
ATOM     83  CG1 VAL C   6       3.009  22.195   4.564  1.00  0.00    -0.071 C 
ATOM     84 1HG1 VAL C   6       4.045  22.465   4.032  1.00  0.00     0.028 H 
ATOM     85 2HG1 VAL C   6       2.162  22.973   4.224  1.00  0.00     0.028 H 
ATOM     86 3HG1 VAL C   6       2.749  21.251   3.866  1.00  0.00     0.028 H 
ATOM     87  CG2 VAL C   6       1.539  21.171   6.463  1.00  0.00    -0.071 C 
ATOM     88 1HG2 VAL C   6       0.599  21.874   6.711  1.00  0.00     0.028 H 
ATOM     89 2HG2 VAL C   6       1.663  20.413   7.378  1.00  0.00     0.028 H 
ATOM     90 3HG2 VAL C   6       1.031  20.531   5.585  1.00  0.00     0.028 H 
ATOM     91  N   PHE C   7       5.469  23.817   5.855  1.00  0.00    -0.346 N 
ATOM     92  H   PHE C   7       6.131  22.914   6.255  1.00  0.00     0.163 HD
ATOM     93  CA  PHE C   7       6.131  24.916   5.165  1.00  0.00     0.093 C 
ATOM     94  HA  PHE C   7       6.179  25.834   5.927  1.00  0.00     0.088 H 
ATOM     95  C   PHE C   7       5.452  25.204   3.832  1.00  0.00     0.241 C 
ATOM     96  O   PHE C   7       5.676  24.494   2.847  1.00  0.00    -0.271 OA
ATOM     97  CB  PHE C   7       7.598  24.574   4.892  1.00  0.00    -0.014 C 
ATOM     98  HB2 PHE C   7       7.857  23.413   5.023  1.00  0.00     0.043 H 
ATOM     99  HB3 PHE C   7       8.162  25.043   5.839  1.00  0.00     0.043 H 
ATOM    100  CG  PHE C   7       8.663  24.717   3.833  1.00  0.00    -0.056 A 
ATOM    101  CD1 PHE C   7       8.556  23.963   2.660  1.00  0.00    -0.077 A 
ATOM    102  HD1 PHE C   7       7.909  22.986   2.463  1.00  0.00     0.084 H 
ATOM    103  CE1 PHE C   7       9.643  23.893   1.784  1.00  0.00    -0.082 A 
ATOM    104  HE1 PHE C   7       9.719  23.165   0.848  1.00  0.00     0.083 H 
ATOM    105  CZ  PHE C   7      10.762  24.708   2.012  1.00  0.00    -0.083 A 
ATOM    106  HZ  PHE C   7      11.671  24.719   1.247  1.00  0.00     0.083 H 
ATOM    107  CE2 PHE C   7      10.867  25.474   3.184  1.00  0.00    -0.082 A 
ATOM    108  HE2 PHE C   7      11.914  25.979   3.428  1.00  0.00     0.083 H 
ATOM    109  CD2 PHE C   7       9.776  25.553   4.056  1.00  0.00    -0.077 A 
ATOM    110  HD2 PHE C   7       9.876  26.500   4.766  1.00  0.00     0.084 H 
ATOM    111  N   TYR C   8       4.620  26.244   3.793  1.00  0.00    -0.346 N 
ATOM    112  H   TYR C   8       4.833  27.121   4.565  1.00  0.00     0.163 HD
ATOM    113  CA  TYR C   8       3.916  26.633   2.546  1.00  0.00     0.093 C 
ATOM    114  HA  TYR C   8       3.028  25.843   2.461  1.00  0.00     0.088 H 
ATOM    115  C   TYR C   8       4.909  26.665   1.367  1.00  0.00     0.241 C 
ATOM    116  O   TYR C   8       6.025  27.178   1.500  1.00  0.00    -0.271 OA
ATOM    117  CB  TYR C   8       3.288  28.020   2.694  1.00  0.00    -0.014 C 
ATOM    118  HB2 TYR C   8       4.046  28.886   2.370  1.00  0.00     0.043 H 
ATOM    119  HB3 TYR C   8       2.417  28.166   1.885  1.00  0.00     0.043 H 
ATOM    120  CG  TYR C   8       2.583  28.440   3.955  1.00  0.00    -0.056 A 
ATOM    121  CD1 TYR C   8       1.358  27.874   4.343  1.00  0.00    -0.074 A 
ATOM    122  HD1 TYR C   8       0.522  27.400   3.644  1.00  0.00     0.084 H 
ATOM    123  CE1 TYR C   8       0.845  28.174   5.616  1.00  0.00    -0.051 A 
ATOM    124  HE1 TYR C   8      -0.243  27.844   5.956  1.00  0.00     0.087 H 
ATOM    125  CZ  TYR C   8       1.559  29.050   6.459  1.00  0.00     0.065 A 
ATOM    126  OH  TYR C   8       1.136  29.266   7.740  1.00  0.00    -0.361 OA
ATOM    127  HH  TYR C   8       1.777  30.122   8.247  1.00  0.00     0.217 HD
ATOM    128  CE2 TYR C   8       2.714  29.714   6.008  1.00  0.00    -0.051 A 
ATOM    129  HE2 TYR C   8       3.246  30.633   6.542  1.00  0.00     0.087 H 
ATOM    130  CD2 TYR C   8       3.206  29.428   4.731  1.00  0.00    -0.074 A 
ATOM    131  HD2 TYR C   8       3.934  30.286   4.347  1.00  0.00     0.084 H 
ATOM    132  N   LYS C   9       4.546  26.132   0.205  1.00  0.00    -0.345 N 
ATOM    133  H   LYS C   9       3.513  25.553   0.118  1.00  0.00     0.163 HD
ATOM    134  CA  LYS C   9       5.446  26.214  -0.946  1.00  0.00     0.096 C 
ATOM    135  HA  LYS C   9       6.598  26.039  -0.702  1.00  0.00     0.089 H 
ATOM    136  C   LYS C   9       5.417  27.680  -1.532  1.00  0.00     0.196 C 
ATOM    137  O   LYS C   9       4.546  28.498  -1.140  1.00  0.00    -0.646 OA
ATOM    138  CB  LYS C   9       5.010  25.222  -2.159  1.00  0.00    -0.037 C 
ATOM    139  HB2 LYS C   9       5.221  25.899  -3.122  1.00  0.00     0.036 H 
ATOM    140  HB3 LYS C   9       3.818  25.171  -2.101  1.00  0.00     0.036 H 
ATOM    141  CG  LYS C   9       5.775  23.923  -2.410  1.00  0.00    -0.061 C 
ATOM    142  HG2 LYS C   9       5.719  23.199  -1.461  1.00  0.00     0.033 H 
ATOM    143  HG3 LYS C   9       6.940  24.129  -2.585  1.00  0.00     0.033 H 
ATOM    144  CD  LYS C   9       4.964  23.420  -3.598  1.00  0.00    -0.043 C 
ATOM    145  HD2 LYS C   9       4.595  24.114  -4.499  1.00  0.00     0.035 H 
ATOM    146  HD3 LYS C   9       3.918  23.012  -3.178  1.00  0.00     0.035 H 
ATOM    147  CE  LYS C   9       5.563  22.138  -4.134  1.00  0.00     0.080 C 
ATOM    148  HE2 LYS C   9       6.179  21.413  -3.407  1.00  0.00     0.075 H 
ATOM    149  HE3 LYS C   9       4.707  21.396  -4.525  1.00  0.00     0.075 H 
ATOM    150  NZ  LYS C   9       6.368  22.531  -5.299  1.00  0.00    -0.079 N 
ATOM    151  HZ1 LYS C   9       6.673  21.522  -5.874  1.00  0.00     0.274 HD
ATOM    152  HZ2 LYS C   9       5.939  23.187  -6.206  1.00  0.00     0.274 HD
ATOM    153  HZ3 LYS C   9       7.446  23.006  -5.074  1.00  0.00     0.274 HD
ATOM    154  OXT LYS C   9       6.290  27.965  -2.385  1.00  0.00    -0.646 OA
ENDROOT
TORSDOF 43
