REMARK  0 active torsions:
REMARK  status: ('A' for Active; 'I' for Inactive)
REMARK       I    between atoms: N_1  and  CA_5 
REMARK       I    between atoms: CA_5  and  C_7 
REMARK       I    between atoms: CA_5  and  CB_9 
REMARK       I    between atoms: C_7  and  N_14 
REMARK       I    between atoms: CB_9  and  OG_12 
REMARK       I    between atoms: N_14  and  CA_16 
REMARK       I    between atoms: CA_16  and  CB_20 
REMARK       I    between atoms: CA_16  and  C_18 
REMARK       I    between atoms: C_18  and  N_28 
REMARK       I    between atoms: CB_20  and  OG1_26 
REMARK       I    between atoms: CB_20  and  CG2_22 
REMARK       I    between atoms: N_28  and  CA_30 
REMARK       I    between atoms: CA_30  and  CB_34 
REMARK       I    between atoms: CA_30  and  C_32 
REMARK       I    between atoms: C_32  and  N_48 
REMARK       I    between atoms: CB_34  and  CG_37 
REMARK       I    between atoms: N_48  and  CA_50 
REMARK       I    between atoms: CA_50  and  CB_54 
REMARK       I    between atoms: CA_50  and  C_52 
REMARK       I    between atoms: C_52  and  N_60 
REMARK       I    between atoms: CB_54  and  CG_57 
REMARK       I    between atoms: N_60  and  CA_62 
REMARK       I    between atoms: CA_62  and  CB_66 
REMARK       I    between atoms: CA_62  and  C_64 
REMARK       I    between atoms: C_64  and  N_75 
REMARK       I    between atoms: CB_66  and  CG_69 
REMARK       I    between atoms: CG_69  and  CD_72 
REMARK       I    between atoms: N_75  and  CA_77 
REMARK       I    between atoms: CA_77  and  CB_81 
REMARK       I    between atoms: CA_77  and  C_79 
REMARK       I    between atoms: C_79  and  N_91 
REMARK       I    between atoms: CB_81  and  CG1_83 
REMARK       I    between atoms: CB_81  and  CG2_87 
REMARK       I    between atoms: N_91  and  CA_93 
REMARK       I    between atoms: CA_93  and  CB_97 
REMARK       I    between atoms: CA_93  and  C_95 
REMARK       I    between atoms: C_95  and  N_111 
REMARK       I    between atoms: CB_97  and  CG_100 
REMARK       I    between atoms: N_111  and  CA_113 
REMARK       I    between atoms: CA_113  and  C_115 
REMARK       I    between atoms: CA_113  and  CB_117 
REMARK       I    between atoms: C_115  and  O_116 
REMARK       I    between atoms: N_132  and  O_116 
REMARK       I    between atoms: CB_117  and  CG_120 
REMARK       I    between atoms: CZ_125  and  OH_126 
REMARK       I    between atoms: N_132  and  CA_134 
REMARK       I    between atoms: CA_134  and  CB_138 
REMARK       I    between atoms: CA_134  and  C_136 
REMARK       I    between atoms: CB_138  and  CG_141 
REMARK       I    between atoms: CG_141  and  CD_144 
REMARK       I    between atoms: CD_144  and  CE_147 
REMARK       I    between atoms: CE_147  and  NZ_150 
ROOT
ATOM      1  N   SER C   1       3.569  10.245  15.174  1.00  0.00    -0.064 N 
ATOM      2  H   SER C   1       4.740  10.037  15.038  1.00  0.00     0.275 HD
ATOM      3  H2  SER C   1       3.063   9.902  14.143  1.00  0.00     0.275 HD
ATOM      4  H3  SER C   1       3.218   9.391  15.939  1.00  0.00     0.275 HD
ATOM      5  CA  SER C   1       3.063  11.615  15.582  1.00  0.00     0.195 C 
ATOM      6  HA  SER C   1       1.902  11.487  15.823  1.00  0.00     0.102 H 
ATOM      7  C   SER C   1       3.501  12.536  14.439  1.00  0.00     0.251 C 
ATOM      8  O   SER C   1       4.647  12.524  13.986  1.00  0.00    -0.271 OA
ATOM      9  CB  SER C   1       3.799  12.126  16.857  1.00  0.00     0.051 C 
ATOM     10  HB2 SER C   1       3.212  13.054  17.328  1.00  0.00     0.077 H 
ATOM     11  HB3 SER C   1       4.926  12.486  16.695  1.00  0.00     0.077 H 
ATOM     12  OG  SER C   1       3.753  11.236  17.957  1.00  0.00    -0.398 OA
ATOM     13  HG  SER C   1       4.681  11.377  18.680  1.00  0.00     0.209 HD
ATOM     14  N   THR C   2       2.645  13.462  14.123  1.00  0.00    -0.344 N 
ATOM     15  H   THR C   2       1.785  13.798  14.872  1.00  0.00     0.163 HD
ATOM     16  CA  THR C   2       2.846  14.378  12.987  1.00  0.00     0.113 C 
ATOM     17  HA  THR C   2       3.317  13.636  12.179  1.00  0.00     0.091 H 
ATOM     18  C   THR C   2       3.766  15.521  13.358  1.00  0.00     0.243 C 
ATOM     19  O   THR C   2       3.873  15.884  14.534  1.00  0.00    -0.271 OA
ATOM     20  CB  THR C   2       1.511  14.974  12.535  1.00  0.00     0.060 C 
ATOM     21  HB  THR C   2       1.594  14.689  11.371  1.00  0.00     0.086 H 
ATOM     22  CG2 THR C   2       1.339  16.466  12.240  1.00  0.00    -0.050 C 
ATOM     23 1HG2 THR C   2       0.159  16.637  12.099  1.00  0.00     0.031 H 
ATOM     24 2HG2 THR C   2       1.723  16.972  11.224  1.00  0.00     0.031 H 
ATOM     25 3HG2 THR C   2       1.519  17.174  13.188  1.00  0.00     0.031 H 
ATOM     26  OG1 THR C   2       0.349  14.160  12.515  1.00  0.00    -0.393 OA
ATOM     27  HG1 THR C   2      -0.418  14.526  13.342  1.00  0.00     0.210 HD
ATOM     28  N   PHE C   3       4.439  16.099  12.364  1.00  0.00    -0.346 N 
ATOM     29  H   PHE C   3       4.401  15.663  11.258  1.00  0.00     0.163 HD
ATOM     30  CA  PHE C   3       5.339  17.221  12.598  1.00  0.00     0.093 C 
ATOM     31  HA  PHE C   3       5.573  17.291  13.766  1.00  0.00     0.088 H 
ATOM     32  C   PHE C   3       4.735  18.516  12.070  1.00  0.00     0.241 C 
ATOM     33  O   PHE C   3       4.002  18.507  11.076  1.00  0.00    -0.271 OA
ATOM     34  CB  PHE C   3       6.678  16.993  11.893  1.00  0.00    -0.014 C 
ATOM     35  HB2 PHE C   3       7.433  16.757  12.791  1.00  0.00     0.043 H 
ATOM     36  HB3 PHE C   3       6.784  15.956  11.303  1.00  0.00     0.043 H 
ATOM     37  CG  PHE C   3       7.459  17.825  10.905  1.00  0.00    -0.059 A 
ATOM     38  CD1 PHE C   3       6.908  18.154   9.660  1.00  0.00    -0.092 A 
ATOM     39  HD1 PHE C   3       6.017  17.525   9.185  1.00  0.00     0.078 H 
ATOM     40  CE1 PHE C   3       7.728  18.751   8.693  1.00  0.00    -0.023 A 
ATOM     41  HE1 PHE C   3       7.640  18.110   7.691  1.00  0.00     0.048 H 
ATOM     42  CZ  PHE C   3       9.040  19.131   9.015  1.00  0.00    -0.023 A 
ATOM     43  HZ  PHE C   3       9.874  18.599   8.346  1.00  0.00     0.048 H 
ATOM     44  CE2 PHE C   3       9.581  18.838  10.274  1.00  0.00    -0.097 A 
ATOM     45  HE2 PHE C   3      10.712  19.105  10.529  1.00  0.00     0.077 H 
ATOM     46  CD2 PHE C   3       8.770  18.220  11.228  1.00  0.00    -0.080 A 
ATOM     47  HD2 PHE C   3       9.401  18.045  12.221  1.00  0.00     0.083 H 
ATOM     48  N   ASP C   4       5.039  19.633  12.728  1.00  0.00    -0.345 N 
ATOM     49  H   ASP C   4       4.952  19.543  13.913  1.00  0.00     0.163 HD
ATOM     50  CA  ASP C   4       4.535  20.933  12.303  1.00  0.00     0.098 C 
ATOM     51  HA  ASP C   4       3.449  21.021  12.792  1.00  0.00     0.088 H 
ATOM     52  C   ASP C   4       4.596  21.066  10.787  1.00  0.00     0.241 C 
ATOM     53  O   ASP C   4       5.603  20.711  10.166  1.00  0.00    -0.271 OA
ATOM     54  CB  ASP C   4       5.369  22.060  12.917  1.00  0.00     0.043 C 
ATOM     55  HB2 ASP C   4       5.501  23.063  12.284  1.00  0.00     0.052 H 
ATOM     56  HB3 ASP C   4       4.879  22.455  13.935  1.00  0.00     0.052 H 
ATOM     57  CG  ASP C   4       6.781  21.707  13.401  1.00  0.00     0.175 C 
ATOM     58  OD1 ASP C   4       7.180  20.537  13.245  1.00  0.00    -0.648 OA
ATOM     59  OD2 ASP C   4       7.471  22.660  13.872  1.00  0.00    -0.648 OA
ATOM     60  N   GLU C   5       3.523  21.575  10.184  1.00  0.00    -0.346 N 
ATOM     61  H   GLU C   5       2.635  22.006  10.847  1.00  0.00     0.163 HD
ATOM     62  CA  GLU C   5       3.474  21.767   8.740  1.00  0.00     0.090 C 
ATOM     63  HA  GLU C   5       3.193  20.654   8.414  1.00  0.00     0.087 H 
ATOM     64  C   GLU C   5       4.746  22.440   8.242  1.00  0.00     0.241 C 
ATOM     65  O   GLU C   5       5.103  23.528   8.705  1.00  0.00    -0.271 OA
ATOM     66  CB  GLU C   5       2.283  22.646   8.354  1.00  0.00    -0.029 C 
ATOM     67  HB2 GLU C   5       1.290  22.225   8.876  1.00  0.00     0.037 H 
ATOM     68  HB3 GLU C   5       2.317  23.771   8.755  1.00  0.00     0.037 H 
ATOM     69  CG  GLU C   5       1.849  22.593   6.884  1.00  0.00     0.018 C 
ATOM     70  HG2 GLU C   5       2.579  23.381   6.375  1.00  0.00     0.049 H 
ATOM     71  HG3 GLU C   5       1.677  21.508   6.416  1.00  0.00     0.049 H 
ATOM     72  CD  GLU C   5       0.523  23.298   6.592  1.00  0.00     0.172 C 
ATOM     73  OE1 GLU C   5       0.568  24.467   6.140  1.00  0.00    -0.648 OA
ATOM     74  OE2 GLU C   5      -0.492  22.572   6.552  1.00  0.00    -0.648 OA
ATOM     75  N   VAL C   6       5.436  21.801   7.299  1.00  0.00    -0.346 N 
ATOM     76  H   VAL C   6       5.150  20.679   7.026  1.00  0.00     0.163 HD
ATOM     77  CA  VAL C   6       6.659  22.359   6.732  1.00  0.00     0.092 C 
ATOM     78  HA  VAL C   6       7.076  23.348   7.242  1.00  0.00     0.088 H 
ATOM     79  C   VAL C   6       6.397  22.938   5.348  1.00  0.00     0.241 C 
ATOM     80  O   VAL C   6       7.270  23.586   4.764  1.00  0.00    -0.271 OA
ATOM     81  CB  VAL C   6       7.734  21.277   6.604  1.00  0.00    -0.033 C 
ATOM     82  HB  VAL C   6       7.337  20.302   6.040  1.00  0.00     0.042 H 
ATOM     83  CG1 VAL C   6       8.965  21.553   5.728  1.00  0.00    -0.071 C 
ATOM     84 1HG1 VAL C   6       9.703  22.465   5.974  1.00  0.00     0.028 H 
ATOM     85 2HG1 VAL C   6       9.723  20.627   5.615  1.00  0.00     0.028 H 
ATOM     86 3HG1 VAL C   6       8.754  21.675   4.554  1.00  0.00     0.028 H 
ATOM     87  CG2 VAL C   6       8.227  20.996   8.005  1.00  0.00    -0.071 C 
ATOM     88 1HG2 VAL C   6       9.384  20.698   7.862  1.00  0.00     0.028 H 
ATOM     89 2HG2 VAL C   6       8.606  22.067   8.429  1.00  0.00     0.028 H 
ATOM     90 3HG2 VAL C   6       7.434  20.889   8.878  1.00  0.00     0.028 H 
ATOM     91  N   PHE C   7       5.195  22.706   4.822  1.00  0.00    -0.346 N 
ATOM     92  H   PHE C   7       4.372  21.968   5.240  1.00  0.00     0.163 HD
ATOM     93  CA  PHE C   7       4.819  23.226   3.513  1.00  0.00     0.093 C 
ATOM     94  HA  PHE C   7       5.786  23.204   2.815  1.00  0.00     0.088 H 
ATOM     95  C   PHE C   7       4.198  24.611   3.640  1.00  0.00     0.241 C 
ATOM     96  O   PHE C   7       3.123  24.765   4.228  1.00  0.00    -0.271 OA
ATOM     97  CB  PHE C   7       3.800  22.303   2.841  1.00  0.00    -0.014 C 
ATOM     98  HB2 PHE C   7       4.509  21.719   2.072  1.00  0.00     0.043 H 
ATOM     99  HB3 PHE C   7       3.378  21.355   3.439  1.00  0.00     0.043 H 
ATOM    100  CG  PHE C   7       2.500  22.414   2.081  1.00  0.00    -0.056 A 
ATOM    101  CD1 PHE C   7       1.337  22.865   2.724  1.00  0.00    -0.077 A 
ATOM    102  HD1 PHE C   7       1.104  23.727   3.502  1.00  0.00     0.084 H 
ATOM    103  CE1 PHE C   7       0.090  22.727   2.096  1.00  0.00    -0.082 A 
ATOM    104  HE1 PHE C   7      -0.969  22.807   2.628  1.00  0.00     0.083 H 
ATOM    105  CZ  PHE C   7       0.034  22.299   0.762  1.00  0.00    -0.083 A 
ATOM    106  HZ  PHE C   7      -0.994  22.334   0.167  1.00  0.00     0.083 H 
ATOM    107  CE2 PHE C   7       1.200  21.867   0.103  1.00  0.00    -0.082 A 
ATOM    108  HE2 PHE C   7       1.026  21.296  -0.924  1.00  0.00     0.083 H 
ATOM    109  CD2 PHE C   7       2.435  22.002   0.730  1.00  0.00    -0.077 A 
ATOM    110  HD2 PHE C   7       3.266  21.507   0.041  1.00  0.00     0.084 H 
ATOM    111  N   TYR C   8       4.869  25.623   3.092  1.00  0.00    -0.351 N 
ATOM    112  H   TYR C   8       6.000  25.570   2.731  1.00  0.00     0.163 HD
ATOM    113  CA  TYR C   8       4.354  27.014   3.135  1.00  0.00     0.055 C 
ATOM    114  HA  TYR C   8       3.183  27.174   3.294  1.00  0.00     0.078 H 
ATOM    115  C   TYR C   8       4.406  27.640   1.727  1.00  0.00     0.186 C 
ATOM    116  O   TYR C   8       5.401  27.490   1.010  1.00  0.00    -0.264 OA
ATOM    117  CB  TYR C   8       5.197  27.871   4.082  1.00  0.00    -0.019 C 
ATOM    118  HB2 TYR C   8       6.106  28.393   3.509  1.00  0.00     0.043 H 
ATOM    119  HB3 TYR C   8       4.546  28.840   4.344  1.00  0.00     0.043 H 
ATOM    120  CG  TYR C   8       5.676  27.378   5.413  1.00  0.00    -0.056 A 
ATOM    121  CD1 TYR C   8       4.789  27.137   6.474  1.00  0.00    -0.074 A 
ATOM    122  HD1 TYR C   8       3.773  27.734   6.627  1.00  0.00     0.084 H 
ATOM    123  CE1 TYR C   8       5.277  26.493   7.630  1.00  0.00    -0.051 A 
ATOM    124  HE1 TYR C   8       4.704  26.718   8.647  1.00  0.00     0.087 H 
ATOM    125  CZ  TYR C   8       6.634  26.134   7.695  1.00  0.00     0.065 A 
ATOM    126  OH  TYR C   8       7.110  25.416   8.756  1.00  0.00    -0.361 OA
ATOM    127  HH  TYR C   8       7.583  26.159   9.549  1.00  0.00     0.217 HD
ATOM    128  CE2 TYR C   8       7.541  26.491   6.684  1.00  0.00    -0.051 A 
ATOM    129  HE2 TYR C   8       8.708  26.506   6.910  1.00  0.00     0.087 H 
ATOM    130  CD2 TYR C   8       7.054  27.154   5.545  1.00  0.00    -0.074 A 
ATOM    131  HD2 TYR C   8       7.950  27.703   4.989  1.00  0.00     0.084 H 
ATOM    132  N   LYS C   9       4.546  26.132   0.205  1.00  0.00    -0.286 N 
ATOM    133  H   LYS C   9       3.400  25.844   0.294  1.00  0.00     0.188 HD
ATOM    134  CA  LYS C   9       5.446  26.214  -0.946  1.00  0.00     0.114 C 
ATOM    135  HA  LYS C   9       6.579  26.022  -0.634  1.00  0.00     0.092 H 
ATOM    136  C   LYS C   9       5.417  27.680  -1.532  1.00  0.00     0.198 C 
ATOM    137  O   LYS C   9       4.546  28.498  -1.140  1.00  0.00    -0.646 OA
ATOM    138  CB  LYS C   9       5.010  25.222  -2.159  1.00  0.00    -0.035 C 
ATOM    139  HB2 LYS C   9       3.818  25.234  -2.093  1.00  0.00     0.036 H 
ATOM    140  HB3 LYS C   9       5.256  25.902  -3.110  1.00  0.00     0.036 H 
ATOM    141  CG  LYS C   9       5.783  23.928  -2.413  1.00  0.00    -0.061 C 
ATOM    142  HG2 LYS C   9       5.737  23.220  -1.463  1.00  0.00     0.033 H 
ATOM    143  HG3 LYS C   9       6.936  24.142  -2.643  1.00  0.00     0.033 H 
ATOM    144  CD  LYS C   9       4.974  23.419  -3.601  1.00  0.00    -0.043 C 
ATOM    145  HD2 LYS C   9       3.923  23.010  -3.198  1.00  0.00     0.035 H 
ATOM    146  HD3 LYS C   9       4.625  24.125  -4.503  1.00  0.00     0.035 H 
ATOM    147  CE  LYS C   9       5.566  22.133  -4.142  1.00  0.00     0.080 C 
ATOM    148  HE2 LYS C   9       4.718  21.411  -4.584  1.00  0.00     0.075 H 
ATOM    149  HE3 LYS C   9       6.130  21.410  -3.375  1.00  0.00     0.075 H 
ATOM    150  NZ  LYS C   9       6.369  22.529  -5.300  1.00  0.00    -0.079 N 
ATOM    151  HZ1 LYS C   9       5.774  22.750  -6.318  1.00  0.00     0.274 HD
ATOM    152  HZ2 LYS C   9       7.042  21.580  -5.599  1.00  0.00     0.274 HD
ATOM    153  HZ3 LYS C   9       7.204  23.389  -5.270  1.00  0.00     0.274 HD
ATOM    154  OXT LYS C   9       6.323  27.983  -2.414  1.00  0.00    -0.646 OA
ENDROOT
TORSDOF 45
