REMARK  0 active torsions:
REMARK  status: ('A' for Active; 'I' for Inactive)
REMARK       I    between atoms: N_1  and  CA_5 
REMARK       I    between atoms: CA_5  and  C_7 
REMARK       I    between atoms: CA_5  and  CB_9 
REMARK       I    between atoms: C_7  and  N_14 
REMARK       I    between atoms: CB_9  and  OG_12 
REMARK       I    between atoms: N_14  and  CA_16 
REMARK       I    between atoms: CA_16  and  C_18 
REMARK       I    between atoms: CA_16  and  CB_20 
REMARK       I    between atoms: C_18  and  N_28 
REMARK       I    between atoms: CB_20  and  OG1_26 
REMARK       I    between atoms: CB_20  and  CG2_22 
REMARK       I    between atoms: N_28  and  CA_30 
REMARK       I    between atoms: CA_30  and  CB_34 
REMARK       I    between atoms: CA_30  and  C_32 
REMARK       I    between atoms: C_32  and  N_48 
REMARK       I    between atoms: CB_34  and  CG_37 
REMARK       I    between atoms: N_48  and  CA_50 
REMARK       I    between atoms: CA_50  and  CB_54 
REMARK       I    between atoms: CA_50  and  C_52 
REMARK       I    between atoms: C_52  and  N_60 
REMARK       I    between atoms: CB_54  and  CG_57 
REMARK       I    between atoms: N_60  and  CA_62 
REMARK       I    between atoms: CA_62  and  CB_66 
REMARK       I    between atoms: CA_62  and  C_64 
REMARK       I    between atoms: C_64  and  N_75 
REMARK       I    between atoms: CB_66  and  CG_69 
REMARK       I    between atoms: CG_69  and  CD_72 
REMARK       I    between atoms: N_75  and  CA_77 
REMARK       I    between atoms: CA_77  and  C_79 
REMARK       I    between atoms: CA_77  and  CB_81 
REMARK       I    between atoms: C_79  and  N_91 
REMARK       I    between atoms: CB_81  and  CG2_87 
REMARK       I    between atoms: CB_81  and  CG1_83 
REMARK       I    between atoms: N_91  and  CA_93 
REMARK       I    between atoms: CA_93  and  C_95 
REMARK       I    between atoms: CA_93  and  CB_97 
REMARK       I    between atoms: C_95  and  N_111 
REMARK       I    between atoms: CB_97  and  CG_100 
REMARK       I    between atoms: N_111  and  CA_113 
REMARK       I    between atoms: CA_113  and  CB_117 
REMARK       I    between atoms: CA_113  and  C_115 
REMARK       I    between atoms: C_115  and  N_132 
REMARK       I    between atoms: CB_117  and  CG_120 
REMARK       I    between atoms: CZ_125  and  OH_126 
REMARK       I    between atoms: N_132  and  CA_134 
REMARK       I    between atoms: CA_134  and  CB_138 
REMARK       I    between atoms: CA_134  and  C_136 
REMARK       I    between atoms: CB_138  and  CG_141 
REMARK       I    between atoms: CG_141  and  CD_144 
REMARK       I    between atoms: CD_144  and  CE_147 
REMARK       I    between atoms: CE_147  and  NZ_150 
ROOT
ATOM      1  N   SER C   1       3.569  10.245  15.174  1.00  0.00    -0.064 N 
ATOM      2  H   SER C   1       2.605   9.596  14.875  1.00  0.00     0.275 HD
ATOM      3  H2  SER C   1       4.099   9.576  16.015  1.00  0.00     0.275 HD
ATOM      4  H3  SER C   1       4.316  10.077  14.253  1.00  0.00     0.275 HD
ATOM      5  CA  SER C   1       3.063  11.615  15.582  1.00  0.00     0.195 C 
ATOM      6  HA  SER C   1       1.888  11.640  15.778  1.00  0.00     0.102 H 
ATOM      7  C   SER C   1       3.501  12.536  14.439  1.00  0.00     0.251 C 
ATOM      8  O   SER C   1       4.647  12.524  13.986  1.00  0.00    -0.271 OA
ATOM      9  CB  SER C   1       3.799  12.126  16.857  1.00  0.00     0.051 C 
ATOM     10  HB2 SER C   1       3.190  12.963  17.458  1.00  0.00     0.077 H 
ATOM     11  HB3 SER C   1       4.918  12.517  16.698  1.00  0.00     0.077 H 
ATOM     12  OG  SER C   1       3.749  11.233  17.953  1.00  0.00    -0.398 OA
ATOM     13  HG  SER C   1       4.791  11.210  18.518  1.00  0.00     0.209 HD
ATOM     14  N   THR C   2       2.679  14.075  14.738  1.00  0.00    -0.344 N 
ATOM     15  H   THR C   2       2.641  14.670  15.761  1.00  0.00     0.163 HD
ATOM     16  CA  THR C   2       2.503  14.427  13.319  1.00  0.00     0.113 C 
ATOM     17  HA  THR C   2       1.661  13.615  13.077  1.00  0.00     0.091 H 
ATOM     18  C   THR C   2       3.815  14.359  12.568  1.00  0.00     0.243 C 
ATOM     19  O   THR C   2       4.887  14.509  13.164  1.00  0.00    -0.271 OA
ATOM     20  CB  THR C   2       1.953  15.849  13.181  1.00  0.00     0.060 C 
ATOM     21  HB  THR C   2       1.014  15.593  12.481  1.00  0.00     0.086 H 
ATOM     22  CG2 THR C   2       2.574  16.882  12.240  1.00  0.00    -0.050 C 
ATOM     23 1HG2 THR C   2       3.714  16.895  11.887  1.00  0.00     0.031 H 
ATOM     24 2HG2 THR C   2       2.708  17.694  13.119  1.00  0.00     0.031 H 
ATOM     25 3HG2 THR C   2       1.822  17.529  11.567  1.00  0.00     0.031 H 
ATOM     26  OG1 THR C   2       0.978  16.305  14.105  1.00  0.00    -0.393 OA
ATOM     27  HG1 THR C   2       1.484  16.993  14.926  1.00  0.00     0.210 HD
ATOM     28  N   PHE C   3       3.747  14.133  11.257  1.00  0.00    -0.346 N 
ATOM     29  H   PHE C   3       2.838  13.494  10.830  1.00  0.00     0.163 HD
ATOM     30  CA  PHE C   3       4.944  14.067  10.428  1.00  0.00     0.088 C 
ATOM     31  HA  PHE C   3       5.904  14.555  10.940  1.00  0.00     0.087 H 
ATOM     32  C   PHE C   3       4.779  14.914   9.173  1.00  0.00     0.221 C 
ATOM     33  O   PHE C   3       5.699  15.010   8.355  1.00  0.00    -0.278 OA
ATOM     34  CB  PHE C   3       5.223  12.624  10.001  1.00  0.00    -0.014 C 
ATOM     35  HB2 PHE C   3       4.404  12.295   9.195  1.00  0.00     0.043 H 
ATOM     36  HB3 PHE C   3       5.228  11.915  10.962  1.00  0.00     0.043 H 
ATOM     37  CG  PHE C   3       6.499  12.094   9.370  1.00  0.00    -0.056 A 
ATOM     38  CD1 PHE C   3       7.651  12.876   9.209  1.00  0.00    -0.077 A 
ATOM     39  HD1 PHE C   3       8.077  13.748   9.895  1.00  0.00     0.084 H 
ATOM     40  CE1 PHE C   3       8.764  12.353   8.522  1.00  0.00    -0.082 A 
ATOM     41  HE1 PHE C   3       9.745  12.980   8.284  1.00  0.00     0.083 H 
ATOM     42  CZ  PHE C   3       8.747  11.029   8.059  1.00  0.00    -0.083 A 
ATOM     43  HZ  PHE C   3       9.678  10.584   7.472  1.00  0.00     0.083 H 
ATOM     44  CE2 PHE C   3       7.622  10.224   8.271  1.00  0.00    -0.082 A 
ATOM     45  HE2 PHE C   3       7.654   9.101   7.884  1.00  0.00     0.083 H 
ATOM     46  CD2 PHE C   3       6.502  10.759   8.926  1.00  0.00    -0.077 A 
ATOM     47  HD2 PHE C   3       5.677   9.917   9.074  1.00  0.00     0.084 H 
ATOM     48  N   ASP C   4       3.609  15.530   9.013  1.00  0.00    -0.247 NA
ATOM     49  H   ASP C   4       3.646  16.306   9.906  1.00  0.00     0.131 HD
ATOM     50  CA  ASP C   4       3.343  16.382   7.861  1.00  0.00     0.085 C 
ATOM     51  HA  ASP C   4       3.720  15.815   6.880  1.00  0.00     0.080 H 
ATOM     52  C   ASP C   4       3.850  17.797   8.108  1.00  0.00     0.236 C 
ATOM     53  O   ASP C   4       3.373  18.485   9.017  1.00  0.00    -0.272 OA
ATOM     54  CB  ASP C   4       1.840  16.453   7.579  1.00  0.00     0.039 C 
ATOM     55  HB2 ASP C   4       1.520  15.631   6.768  1.00  0.00     0.052 H 
ATOM     56  HB3 ASP C   4       1.433  17.483   7.131  1.00  0.00     0.052 H 
ATOM     57  CG  ASP C   4       0.873  16.076   8.704  1.00  0.00     0.174 C 
ATOM     58  OD1 ASP C   4       1.361  15.784   9.814  1.00  0.00    -0.648 OA
ATOM     59  OD2 ASP C   4      -0.340  16.164   8.443  1.00  0.00    -0.648 OA
ATOM     60  N   GLU C   5       4.816  18.239   7.304  1.00  0.00    -0.346 N 
ATOM     61  H   GLU C   5       5.066  17.656   6.298  1.00  0.00     0.163 HD
ATOM     62  CA  GLU C   5       5.365  19.583   7.433  1.00  0.00     0.090 C 
ATOM     63  HA  GLU C   5       5.823  19.543   8.534  1.00  0.00     0.087 H 
ATOM     64  C   GLU C   5       4.300  20.632   7.138  1.00  0.00     0.241 C 
ATOM     65  O   GLU C   5       3.424  20.416   6.294  1.00  0.00    -0.271 OA
ATOM     66  CB  GLU C   5       6.524  19.787   6.455  1.00  0.00    -0.029 C 
ATOM     67  HB2 GLU C   5       6.157  19.833   5.319  1.00  0.00     0.037 H 
ATOM     68  HB3 GLU C   5       7.272  18.853   6.503  1.00  0.00     0.037 H 
ATOM     69  CG  GLU C   5       7.357  21.057   6.636  1.00  0.00     0.018 C 
ATOM     70  HG2 GLU C   5       7.972  20.794   7.633  1.00  0.00     0.049 H 
ATOM     71  HG3 GLU C   5       6.965  22.113   7.014  1.00  0.00     0.049 H 
ATOM     72  CD  GLU C   5       8.557  21.096   5.691  1.00  0.00     0.172 C 
ATOM     73  OE1 GLU C   5       8.438  21.754   4.639  1.00  0.00    -0.648 OA
ATOM     74  OE2 GLU C   5       9.643  20.649   6.119  1.00  0.00    -0.648 OA
ATOM     75  N   VAL C   6       4.368  21.769   7.827  1.00  0.00    -0.346 N 
ATOM     76  H   VAL C   6       5.092  21.887   8.763  1.00  0.00     0.163 HD
ATOM     77  CA  VAL C   6       3.415  22.853   7.615  1.00  0.00     0.087 C 
ATOM     78  HA  VAL C   6       2.495  22.645   6.883  1.00  0.00     0.087 H 
ATOM     79  C   VAL C   6       4.071  24.012   6.877  1.00  0.00     0.221 C 
ATOM     80  O   VAL C   6       3.662  25.167   7.033  1.00  0.00    -0.278 OA
ATOM     81  CB  VAL C   6       2.886  23.373   8.953  1.00  0.00    -0.033 C 
ATOM     82  HB  VAL C   6       3.734  23.518   9.781  1.00  0.00     0.042 H 
ATOM     83  CG1 VAL C   6       2.176  24.728   9.082  1.00  0.00    -0.071 C 
ATOM     84 1HG1 VAL C   6       1.176  24.753   9.746  1.00  0.00     0.028 H 
ATOM     85 2HG1 VAL C   6       2.841  25.533   9.673  1.00  0.00     0.028 H 
ATOM     86 3HG1 VAL C   6       1.696  25.258   8.122  1.00  0.00     0.028 H 
ATOM     87  CG2 VAL C   6       1.949  22.303   9.471  1.00  0.00    -0.071 C 
ATOM     88 1HG2 VAL C   6       2.399  21.231   9.755  1.00  0.00     0.028 H 
ATOM     89 2HG2 VAL C   6       0.960  22.086   8.830  1.00  0.00     0.028 H 
ATOM     90 3HG2 VAL C   6       1.506  22.536  10.564  1.00  0.00     0.028 H 
ATOM     91  N   PHE C   7       5.090  23.709   6.074  1.00  0.00    -0.247 NA
ATOM     92  H   PHE C   7       4.852  22.790   5.358  1.00  0.00     0.131 HD
ATOM     93  CA  PHE C   7       5.786  24.730   5.301  1.00  0.00     0.080 C 
ATOM     94  HA  PHE C   7       5.818  25.648   6.064  1.00  0.00     0.079 H 
ATOM     95  C   PHE C   7       5.060  25.002   3.990  1.00  0.00     0.236 C 
ATOM     96  O   PHE C   7       4.897  24.099   3.163  1.00  0.00    -0.272 OA
ATOM     97  CB  PHE C   7       7.212  24.279   4.975  1.00  0.00    -0.018 C 
ATOM     98  HB2 PHE C   7       7.806  23.568   5.721  1.00  0.00     0.043 H 
ATOM     99  HB3 PHE C   7       7.638  25.351   5.304  1.00  0.00     0.043 H 
ATOM    100  CG  PHE C   7       8.106  24.266   3.746  1.00  0.00    -0.056 A 
ATOM    101  CD1 PHE C   7       7.797  23.464   2.635  1.00  0.00    -0.077 A 
ATOM    102  HD1 PHE C   7       6.859  22.779   2.392  1.00  0.00     0.084 H 
ATOM    103  CE1 PHE C   7       8.788  23.194   1.670  1.00  0.00    -0.082 A 
ATOM    104  HE1 PHE C   7       8.784  22.261   0.935  1.00  0.00     0.083 H 
ATOM    105  CZ  PHE C   7       9.983  23.928   1.690  1.00  0.00    -0.083 A 
ATOM    106  HZ  PHE C   7      10.782  23.842   0.814  1.00  0.00     0.083 H 
ATOM    107  CE2 PHE C   7      10.275  24.777   2.764  1.00  0.00    -0.082 A 
ATOM    108  HE2 PHE C   7      11.379  25.208   2.852  1.00  0.00     0.083 H 
ATOM    109  CD2 PHE C   7       9.297  25.020   3.745  1.00  0.00    -0.077 A 
ATOM    110  HD2 PHE C   7       9.636  25.996   4.335  1.00  0.00     0.084 H 
ATOM    111  N   TYR C   8       4.620  26.244   3.793  1.00  0.00    -0.346 N 
ATOM    112  H   TYR C   8       5.167  27.151   4.332  1.00  0.00     0.163 HD
ATOM    113  CA  TYR C   8       3.916  26.633   2.546  1.00  0.00     0.093 C 
ATOM    114  HA  TYR C   8       3.010  25.859   2.495  1.00  0.00     0.088 H 
ATOM    115  C   TYR C   8       4.909  26.665   1.367  1.00  0.00     0.241 C 
ATOM    116  O   TYR C   8       6.025  27.178   1.500  1.00  0.00    -0.271 OA
ATOM    117  CB  TYR C   8       3.288  28.020   2.694  1.00  0.00    -0.014 C 
ATOM    118  HB2 TYR C   8       4.043  28.889   2.371  1.00  0.00     0.043 H 
ATOM    119  HB3 TYR C   8       2.418  28.159   1.883  1.00  0.00     0.043 H 
ATOM    120  CG  TYR C   8       2.583  28.445   3.953  1.00  0.00    -0.056 A 
ATOM    121  CD1 TYR C   8       1.361  27.875   4.348  1.00  0.00    -0.074 A 
ATOM    122  HD1 TYR C   8       0.555  27.319   3.675  1.00  0.00     0.084 H 
ATOM    123  CE1 TYR C   8       0.844  28.177   5.622  1.00  0.00    -0.051 A 
ATOM    124  HE1 TYR C   8      -0.270  27.909   5.936  1.00  0.00     0.087 H 
ATOM    125  CZ  TYR C   8       1.555  29.052   6.468  1.00  0.00     0.065 A 
ATOM    126  OH  TYR C   8       1.132  29.264   7.747  1.00  0.00    -0.361 OA
ATOM    127  HH  TYR C   8       1.305  30.398   8.039  1.00  0.00     0.217 HD
ATOM    128  CE2 TYR C   8       2.710  29.716   6.017  1.00  0.00    -0.051 A 
ATOM    129  HE2 TYR C   8       3.331  30.513   6.643  1.00  0.00     0.087 H 
ATOM    130  CD2 TYR C   8       3.205  29.431   4.736  1.00  0.00    -0.074 A 
ATOM    131  HD2 TYR C   8       3.916  30.309   4.366  1.00  0.00     0.084 H 
ATOM    132  N   LYS C   9       4.546  26.132   0.205  1.00  0.00    -0.345 N 
ATOM    133  H   LYS C   9       3.456  25.670   0.122  1.00  0.00     0.163 HD
ATOM    134  CA  LYS C   9       5.446  26.214  -0.946  1.00  0.00     0.096 C 
ATOM    135  HA  LYS C   9       6.588  26.044  -0.654  1.00  0.00     0.089 H 
ATOM    136  C   LYS C   9       5.417  27.680  -1.532  1.00  0.00     0.196 C 
ATOM    137  O   LYS C   9       4.546  28.498  -1.140  1.00  0.00    -0.646 OA
ATOM    138  CB  LYS C   9       5.010  25.222  -2.159  1.00  0.00    -0.037 C 
ATOM    139  HB2 LYS C   9       5.234  25.989  -3.044  1.00  0.00     0.036 H 
ATOM    140  HB3 LYS C   9       3.827  25.068  -2.125  1.00  0.00     0.036 H 
ATOM    141  CG  LYS C   9       5.776  23.930  -2.412  1.00  0.00    -0.061 C 
ATOM    142  HG2 LYS C   9       6.952  24.104  -2.543  1.00  0.00     0.033 H 
ATOM    143  HG3 LYS C   9       5.629  23.190  -1.484  1.00  0.00     0.033 H 
ATOM    144  CD  LYS C   9       4.971  23.410  -3.602  1.00  0.00    -0.043 C 
ATOM    145  HD2 LYS C   9       4.805  24.255  -4.432  1.00  0.00     0.035 H 
ATOM    146  HD3 LYS C   9       3.895  22.900  -3.455  1.00  0.00     0.035 H 
ATOM    147  CE  LYS C   9       5.563  22.128  -4.144  1.00  0.00     0.080 C 
ATOM    148  HE2 LYS C   9       6.272  21.614  -3.328  1.00  0.00     0.075 H 
ATOM    149  HE3 LYS C   9       4.899  21.188  -4.473  1.00  0.00     0.075 H 
ATOM    150  NZ  LYS C   9       6.372  22.521  -5.305  1.00  0.00    -0.079 N 
ATOM    151  HZ1 LYS C   9       6.840  23.610  -5.485  1.00  0.00     0.274 HD
ATOM    152  HZ2 LYS C   9       5.775  22.319  -6.326  1.00  0.00     0.274 HD
ATOM    153  HZ3 LYS C   9       7.352  21.835  -5.401  1.00  0.00     0.274 HD
ATOM    154  OXT LYS C   9       6.271  27.990  -2.378  1.00  0.00    -0.646 OA
ENDROOT
TORSDOF 43
