REMARK  0 active torsions:
REMARK  status: ('A' for Active; 'I' for Inactive)
REMARK       I    between atoms: N_1  and  CA_5 
REMARK       I    between atoms: CA_5  and  CB_9 
REMARK       I    between atoms: CA_5  and  C_7 
REMARK       I    between atoms: C_7  and  N_14 
REMARK       I    between atoms: CB_9  and  OG_12 
REMARK       I    between atoms: N_14  and  CA_16 
REMARK       I    between atoms: CA_16  and  C_18 
REMARK       I    between atoms: CA_16  and  CB_20 
REMARK       I    between atoms: C_18  and  N_28 
REMARK       I    between atoms: CB_20  and  CG2_22 
REMARK       I    between atoms: CB_20  and  OG1_26 
REMARK       I    between atoms: N_28  and  CA_30 
REMARK       I    between atoms: CA_30  and  CB_34 
REMARK       I    between atoms: CA_30  and  C_32 
REMARK       I    between atoms: C_32  and  N_48 
REMARK       I    between atoms: CB_34  and  CG_37 
REMARK       I    between atoms: N_48  and  CA_50 
REMARK       I    between atoms: CA_50  and  CB_54 
REMARK       I    between atoms: CA_50  and  C_52 
REMARK       I    between atoms: C_52  and  N_60 
REMARK       I    between atoms: CB_54  and  CG_57 
REMARK       I    between atoms: N_60  and  CA_62 
REMARK       I    between atoms: CA_62  and  C_64 
REMARK       I    between atoms: CA_62  and  CB_66 
REMARK       I    between atoms: C_64  and  N_75 
REMARK       I    between atoms: CB_66  and  CG_69 
REMARK       I    between atoms: CG_69  and  CD_72 
REMARK       I    between atoms: N_75  and  CA_77 
REMARK       I    between atoms: CA_77  and  C_79 
REMARK       I    between atoms: CA_77  and  CB_81 
REMARK       I    between atoms: C_79  and  N_91 
REMARK       I    between atoms: CB_81  and  CG1_83 
REMARK       I    between atoms: CB_81  and  CG2_87 
REMARK       I    between atoms: N_91  and  CA_93 
REMARK       I    between atoms: CA_93  and  CB_97 
REMARK       I    between atoms: CA_93  and  C_95 
REMARK       I    between atoms: C_95  and  N_111 
REMARK       I    between atoms: CB_97  and  CG_100 
REMARK       I    between atoms: N_111  and  CA_113 
REMARK       I    between atoms: CA_113  and  C_115 
REMARK       I    between atoms: CA_113  and  CB_117 
REMARK       I    between atoms: C_115  and  N_132 
REMARK       I    between atoms: CB_117  and  CG_120 
REMARK       I    between atoms: CZ_125  and  OH_126 
REMARK       I    between atoms: N_132  and  CA_134 
REMARK       I    between atoms: CA_134  and  C_136 
REMARK       I    between atoms: CA_134  and  CB_138 
REMARK       I    between atoms: CB_138  and  CG_141 
REMARK       I    between atoms: CG_141  and  CD_144 
REMARK       I    between atoms: CD_144  and  CE_147 
REMARK       I    between atoms: CE_147  and  NZ_150 
ROOT
ATOM      1  N   SER C   1       3.569  10.245  15.174  1.00  0.00    -0.064 N 
ATOM      2  H   SER C   1       2.990   9.388  15.780  1.00  0.00     0.275 HD
ATOM      3  H2  SER C   1       3.318   9.969  14.036  1.00  0.00     0.275 HD
ATOM      4  H3  SER C   1       4.728   9.976  15.307  1.00  0.00     0.275 HD
ATOM      5  CA  SER C   1       3.063  11.615  15.582  1.00  0.00     0.195 C 
ATOM      6  HA  SER C   1       1.893  11.492  15.777  1.00  0.00     0.102 H 
ATOM      7  C   SER C   1       3.501  12.536  14.439  1.00  0.00     0.251 C 
ATOM      8  O   SER C   1       4.647  12.524  13.986  1.00  0.00    -0.271 OA
ATOM      9  CB  SER C   1       3.799  12.126  16.857  1.00  0.00     0.051 C 
ATOM     10  HB2 SER C   1       3.202  12.993  17.426  1.00  0.00     0.077 H 
ATOM     11  HB3 SER C   1       4.963  12.372  16.740  1.00  0.00     0.077 H 
ATOM     12  OG  SER C   1       3.743  11.224  17.949  1.00  0.00    -0.398 OA
ATOM     13  HG  SER C   1       4.408  11.598  18.858  1.00  0.00     0.209 HD
ATOM     14  N   THR C   2       3.288  13.352  14.534  1.00  0.00    -0.344 N 
ATOM     15  H   THR C   2       3.330  14.140  15.431  1.00  0.00     0.163 HD
ATOM     16  CA  THR C   2       2.817  14.238  13.456  1.00  0.00     0.113 C 
ATOM     17  HA  THR C   2       3.076  13.654  12.446  1.00  0.00     0.091 H 
ATOM     18  C   THR C   2       3.637  15.508  13.388  1.00  0.00     0.243 C 
ATOM     19  O   THR C   2       4.221  15.931  14.391  1.00  0.00    -0.271 OA
ATOM     20  CB  THR C   2       1.356  14.631  13.684  1.00  0.00     0.060 C 
ATOM     21  HB  THR C   2       1.021  14.230  12.604  1.00  0.00     0.086 H 
ATOM     22  CG2 THR C   2       0.862  16.074  13.520  1.00  0.00    -0.050 C 
ATOM     23 1HG2 THR C   2       1.026  17.228  13.262  1.00  0.00     0.031 H 
ATOM     24 2HG2 THR C   2       0.641  16.293  14.677  1.00  0.00     0.031 H 
ATOM     25 3HG2 THR C   2      -0.129  15.958  12.853  1.00  0.00     0.031 H 
ATOM     26  OG1 THR C   2       0.427  13.669  14.170  1.00  0.00    -0.393 OA
ATOM     27  HG1 THR C   2       0.033  13.962  15.248  1.00  0.00     0.210 HD
ATOM     28  N   PHE C   3       3.691  16.127  12.210  1.00  0.00    -0.346 N 
ATOM     29  H   PHE C   3       3.058  15.734  11.284  1.00  0.00     0.163 HD
ATOM     30  CA  PHE C   3       4.434  17.368  12.030  1.00  0.00     0.093 C 
ATOM     31  HA  PHE C   3       5.402  17.469  12.719  1.00  0.00     0.088 H 
ATOM     32  C   PHE C   3       3.531  18.574  12.255  1.00  0.00     0.241 C 
ATOM     33  O   PHE C   3       2.944  19.104  11.305  1.00  0.00    -0.271 OA
ATOM     34  CB  PHE C   3       5.004  17.453  10.613  1.00  0.00    -0.014 C 
ATOM     35  HB2 PHE C   3       4.403  16.691   9.922  1.00  0.00     0.043 H 
ATOM     36  HB3 PHE C   3       6.070  16.922  10.722  1.00  0.00     0.043 H 
ATOM     37  CG  PHE C   3       5.320  18.413   9.494  1.00  0.00    -0.056 A 
ATOM     38  CD1 PHE C   3       4.270  18.953   8.740  1.00  0.00    -0.077 A 
ATOM     39  HD1 PHE C   3       3.100  18.771   8.772  1.00  0.00     0.084 H 
ATOM     40  CE1 PHE C   3       4.568  19.614   7.531  1.00  0.00    -0.082 A 
ATOM     41  HE1 PHE C   3       3.781  19.620   6.641  1.00  0.00     0.083 H 
ATOM     42  CZ  PHE C   3       5.903  19.900   7.218  1.00  0.00    -0.083 A 
ATOM     43  HZ  PHE C   3       6.203  20.102   6.089  1.00  0.00     0.083 H 
ATOM     44  CE2 PHE C   3       6.949  19.359   7.972  1.00  0.00    -0.082 A 
ATOM     45  HE2 PHE C   3       8.056  19.309   7.544  1.00  0.00     0.083 H 
ATOM     46  CD2 PHE C   3       6.668  18.709   9.184  1.00  0.00    -0.077 A 
ATOM     47  HD2 PHE C   3       7.653  18.421   9.784  1.00  0.00     0.084 H 
ATOM     48  N   ASP C   4       3.415  19.014  13.507  1.00  0.00    -0.345 N 
ATOM     49  H   ASP C   4       3.665  18.330  14.444  1.00  0.00     0.163 HD
ATOM     50  CA  ASP C   4       2.595  20.172  13.839  1.00  0.00     0.098 C 
ATOM     51  HA  ASP C   4       1.438  20.078  13.564  1.00  0.00     0.088 H 
ATOM     52  C   ASP C   4       3.063  21.403  13.072  1.00  0.00     0.241 C 
ATOM     53  O   ASP C   4       2.329  22.390  12.960  1.00  0.00    -0.271 OA
ATOM     54  CB  ASP C   4       2.678  20.479  15.335  1.00  0.00     0.043 C 
ATOM     55  HB2 ASP C   4       1.895  19.826  15.960  1.00  0.00     0.052 H 
ATOM     56  HB3 ASP C   4       2.386  21.608  15.605  1.00  0.00     0.052 H 
ATOM     57  CG  ASP C   4       3.960  20.293  16.133  1.00  0.00     0.175 C 
ATOM     58  OD1 ASP C   4       4.961  20.216  15.376  1.00  0.00    -0.648 OA
ATOM     59  OD2 ASP C   4       3.958  20.541  17.366  1.00  0.00    -0.648 OA
ATOM     60  N   GLU C   5       4.284  21.352  12.541  1.00  0.00    -0.346 N 
ATOM     61  H   GLU C   5       5.152  20.724  13.052  1.00  0.00     0.163 HD
ATOM     62  CA  GLU C   5       4.831  22.461  11.770  1.00  0.00     0.090 C 
ATOM     63  HA  GLU C   5       4.788  23.355  12.560  1.00  0.00     0.087 H 
ATOM     64  C   GLU C   5       4.072  22.634  10.461  1.00  0.00     0.241 C 
ATOM     65  O   GLU C   5       3.753  21.650   9.786  1.00  0.00    -0.271 OA
ATOM     66  CB  GLU C   5       6.304  22.212  11.441  1.00  0.00    -0.029 C 
ATOM     67  HB2 GLU C   5       6.537  21.321  10.685  1.00  0.00     0.037 H 
ATOM     68  HB3 GLU C   5       6.951  21.999  12.425  1.00  0.00     0.037 H 
ATOM     69  CG  GLU C   5       7.094  23.405  10.883  1.00  0.00     0.018 C 
ATOM     70  HG2 GLU C   5       7.120  24.342  11.626  1.00  0.00     0.049 H 
ATOM     71  HG3 GLU C   5       6.865  23.848   9.800  1.00  0.00     0.049 H 
ATOM     72  CD  GLU C   5       8.591  23.134  10.717  1.00  0.00     0.172 C 
ATOM     73  OE1 GLU C   5       9.013  22.871   9.569  1.00  0.00    -0.648 OA
ATOM     74  OE2 GLU C   5       9.324  23.449  11.682  1.00  0.00    -0.648 OA
ATOM     75  N   VAL C   6       3.779  23.881  10.096  1.00  0.00    -0.346 N 
ATOM     76  H   VAL C   6       4.206  24.828  10.675  1.00  0.00     0.163 HD
ATOM     77  CA  VAL C   6       3.072  24.169   8.852  1.00  0.00     0.092 C 
ATOM     78  HA  VAL C   6       2.497  23.213   8.434  1.00  0.00     0.088 H 
ATOM     79  C   VAL C   6       3.986  24.885   7.866  1.00  0.00     0.241 C 
ATOM     80  O   VAL C   6       4.429  26.009   8.123  1.00  0.00    -0.271 OA
ATOM     81  CB  VAL C   6       1.859  25.064   9.119  1.00  0.00    -0.033 C 
ATOM     82  HB  VAL C   6       2.382  26.032   9.592  1.00  0.00     0.042 H 
ATOM     83  CG1 VAL C   6       1.233  25.874   7.978  1.00  0.00    -0.071 C 
ATOM     84 1HG1 VAL C   6       0.671  26.853   8.372  1.00  0.00     0.028 H 
ATOM     85 2HG1 VAL C   6       0.323  25.174   7.629  1.00  0.00     0.028 H 
ATOM     86 3HG1 VAL C   6       1.831  26.040   6.961  1.00  0.00     0.028 H 
ATOM     87  CG2 VAL C   6       1.007  24.854  10.368  1.00  0.00    -0.071 C 
ATOM     88 1HG2 VAL C   6       0.167  25.686  10.580  1.00  0.00     0.028 H 
ATOM     89 2HG2 VAL C   6       1.459  24.774  11.475  1.00  0.00     0.028 H 
ATOM     90 3HG2 VAL C   6       0.346  23.869  10.195  1.00  0.00     0.028 H 
ATOM     91  N   PHE C   7       4.270  24.237   6.738  1.00  0.00    -0.346 N 
ATOM     92  H   PHE C   7       3.772  23.203   6.434  1.00  0.00     0.163 HD
ATOM     93  CA  PHE C   7       5.118  24.826   5.709  1.00  0.00     0.093 C 
ATOM     94  HA  PHE C   7       5.595  25.832   6.136  1.00  0.00     0.088 H 
ATOM     95  C   PHE C   7       4.310  25.129   4.453  1.00  0.00     0.241 C 
ATOM     96  O   PHE C   7       3.415  24.363   4.083  1.00  0.00    -0.271 OA
ATOM     97  CB  PHE C   7       6.250  23.869   5.332  1.00  0.00    -0.014 C 
ATOM     98  HB2 PHE C   7       7.211  24.459   5.734  1.00  0.00     0.043 H 
ATOM     99  HB3 PHE C   7       6.296  22.861   5.971  1.00  0.00     0.043 H 
ATOM    100  CG  PHE C   7       6.705  23.312   3.991  1.00  0.00    -0.056 A 
ATOM    101  CD1 PHE C   7       5.867  22.524   3.190  1.00  0.00    -0.077 A 
ATOM    102  HD1 PHE C   7       4.788  22.081   3.407  1.00  0.00     0.084 H 
ATOM    103  CE1 PHE C   7       6.397  21.842   2.072  1.00  0.00    -0.082 A 
ATOM    104  HE1 PHE C   7       5.823  20.972   1.502  1.00  0.00     0.083 H 
ATOM    105  CZ  PHE C   7       7.726  22.058   1.690  1.00  0.00    -0.083 A 
ATOM    106  HZ  PHE C   7       8.212  21.445   0.796  1.00  0.00     0.083 H 
ATOM    107  CE2 PHE C   7       8.560  22.867   2.469  1.00  0.00    -0.082 A 
ATOM    108  HE2 PHE C   7       9.719  22.885   2.206  1.00  0.00     0.083 H 
ATOM    109  CD2 PHE C   7       8.027  23.551   3.576  1.00  0.00    -0.077 A 
ATOM    110  HD2 PHE C   7       8.838  24.334   3.954  1.00  0.00     0.084 H 
ATOM    111  N   TYR C   8       4.620  26.244   3.793  1.00  0.00    -0.346 N 
ATOM    112  H   TYR C   8       5.532  26.960   4.056  1.00  0.00     0.163 HD
ATOM    113  CA  TYR C   8       3.916  26.633   2.546  1.00  0.00     0.093 C 
ATOM    114  HA  TYR C   8       2.998  25.905   2.335  1.00  0.00     0.088 H 
ATOM    115  C   TYR C   8       4.909  26.665   1.367  1.00  0.00     0.241 C 
ATOM    116  O   TYR C   8       6.025  27.178   1.500  1.00  0.00    -0.271 OA
ATOM    117  CB  TYR C   8       3.288  28.020   2.694  1.00  0.00    -0.014 C 
ATOM    118  HB2 TYR C   8       2.446  28.223   1.869  1.00  0.00     0.043 H 
ATOM    119  HB3 TYR C   8       4.091  28.862   2.423  1.00  0.00     0.043 H 
ATOM    120  CG  TYR C   8       2.582  28.457   3.949  1.00  0.00    -0.056 A 
ATOM    121  CD1 TYR C   8       1.357  27.894   4.343  1.00  0.00    -0.074 A 
ATOM    122  HD1 TYR C   8       0.571  27.360   3.629  1.00  0.00     0.084 H 
ATOM    123  CE1 TYR C   8       0.834  28.206   5.616  1.00  0.00    -0.051 A 
ATOM    124  HE1 TYR C   8      -0.348  28.210   5.738  1.00  0.00     0.087 H 
ATOM    125  CZ  TYR C   8       1.548  29.075   6.460  1.00  0.00     0.065 A 
ATOM    126  OH  TYR C   8       1.119  29.293   7.744  1.00  0.00    -0.361 OA
ATOM    127  HH  TYR C   8       2.011  29.639   8.442  1.00  0.00     0.217 HD
ATOM    128  CE2 TYR C   8       2.705  29.731   6.018  1.00  0.00    -0.051 A 
ATOM    129  HE2 TYR C   8       3.114  30.727   6.521  1.00  0.00     0.087 H 
ATOM    130  CD2 TYR C   8       3.205  29.444   4.735  1.00  0.00    -0.074 A 
ATOM    131  HD2 TYR C   8       4.080  30.199   4.455  1.00  0.00     0.084 H 
ATOM    132  N   LYS C   9       4.546  26.132   0.205  1.00  0.00    -0.345 N 
ATOM    133  H   LYS C   9       3.455  25.683   0.064  1.00  0.00     0.163 HD
ATOM    134  CA  LYS C   9       5.446  26.214  -0.946  1.00  0.00     0.096 C 
ATOM    135  HA  LYS C   9       6.593  26.056  -0.669  1.00  0.00     0.089 H 
ATOM    136  C   LYS C   9       5.417  27.680  -1.532  1.00  0.00     0.196 C 
ATOM    137  O   LYS C   9       4.546  28.498  -1.140  1.00  0.00    -0.646 OA
ATOM    138  CB  LYS C   9       5.010  25.222  -2.159  1.00  0.00    -0.037 C 
ATOM    139  HB2 LYS C   9       5.235  25.918  -3.105  1.00  0.00     0.036 H 
ATOM    140  HB3 LYS C   9       3.818  25.148  -2.111  1.00  0.00     0.036 H 
ATOM    141  CG  LYS C   9       5.793  23.921  -2.418  1.00  0.00    -0.061 C 
ATOM    142  HG2 LYS C   9       5.726  23.209  -1.465  1.00  0.00     0.033 H 
ATOM    143  HG3 LYS C   9       6.956  24.125  -2.589  1.00  0.00     0.033 H 
ATOM    144  CD  LYS C   9       4.982  23.399  -3.606  1.00  0.00    -0.043 C 
ATOM    145  HD2 LYS C   9       3.923  22.996  -3.216  1.00  0.00     0.035 H 
ATOM    146  HD3 LYS C   9       4.670  24.133  -4.499  1.00  0.00     0.035 H 
ATOM    147  CE  LYS C   9       5.562  22.119  -4.154  1.00  0.00     0.080 C 
ATOM    148  HE2 LYS C   9       4.726  21.346  -4.518  1.00  0.00     0.075 H 
ATOM    149  HE3 LYS C   9       6.199  21.429  -3.414  1.00  0.00     0.075 H 
ATOM    150  NZ  LYS C   9       6.376  22.512  -5.310  1.00  0.00    -0.079 N 
ATOM    151  HZ1 LYS C   9       6.759  21.496  -5.822  1.00  0.00     0.274 HD
ATOM    152  HZ2 LYS C   9       5.843  23.036  -6.247  1.00  0.00     0.274 HD
ATOM    153  HZ3 LYS C   9       7.398  23.114  -5.147  1.00  0.00     0.274 HD
ATOM    154  OXT LYS C   9       6.233  28.077  -2.378  1.00  0.00    -0.646 OA
ENDROOT
TORSDOF 43
