REMARK  0 active torsions:
REMARK  status: ('A' for Active; 'I' for Inactive)
REMARK       I    between atoms: N_1  and  CA_5 
REMARK       I    between atoms: CA_5  and  C_7 
REMARK       I    between atoms: CA_5  and  CB_9 
REMARK       I    between atoms: C_7  and  N_14 
REMARK       I    between atoms: CB_9  and  OG_12 
REMARK       I    between atoms: N_14  and  CA_16 
REMARK       I    between atoms: CA_16  and  CB_20 
REMARK       I    between atoms: CA_16  and  C_18 
REMARK       I    between atoms: C_18  and  N_28 
REMARK       I    between atoms: CB_20  and  OG1_26 
REMARK       I    between atoms: CB_20  and  CG2_22 
REMARK       I    between atoms: N_28  and  CA_30 
REMARK       I    between atoms: CA_30  and  CB_34 
REMARK       I    between atoms: CA_30  and  C_32 
REMARK       I    between atoms: C_32  and  N_48 
REMARK       I    between atoms: CB_34  and  CG_37 
REMARK       I    between atoms: N_48  and  CA_50 
REMARK       I    between atoms: CA_50  and  CB_54 
REMARK       I    between atoms: CA_50  and  C_52 
REMARK       I    between atoms: C_52  and  N_60 
REMARK       I    between atoms: CB_54  and  CG_57 
REMARK       I    between atoms: N_60  and  CA_62 
REMARK       I    between atoms: CA_62  and  C_64 
REMARK       I    between atoms: CA_62  and  CB_66 
REMARK       I    between atoms: C_64  and  N_75 
REMARK       I    between atoms: CB_66  and  CG_69 
REMARK       I    between atoms: CG_69  and  CD_72 
REMARK       I    between atoms: N_75  and  CA_77 
REMARK       I    between atoms: CA_77  and  C_79 
REMARK       I    between atoms: CA_77  and  CB_81 
REMARK       I    between atoms: C_79  and  N_91 
REMARK       I    between atoms: CB_81  and  CG2_87 
REMARK       I    between atoms: CB_81  and  CG1_83 
REMARK       I    between atoms: N_91  and  CA_93 
REMARK       I    between atoms: CA_93  and  CB_97 
REMARK       I    between atoms: CA_93  and  C_95 
REMARK       I    between atoms: C_95  and  N_111 
REMARK       I    between atoms: CB_97  and  CG_100 
REMARK       I    between atoms: N_111  and  CA_113 
REMARK       I    between atoms: CA_113  and  CB_117 
REMARK       I    between atoms: CA_113  and  C_115 
REMARK       I    between atoms: C_115  and  N_132 
REMARK       I    between atoms: CB_117  and  CG_120 
REMARK       I    between atoms: CZ_125  and  OH_126 
REMARK       I    between atoms: N_132  and  CA_134 
REMARK       I    between atoms: CA_134  and  CB_138 
REMARK       I    between atoms: CA_134  and  C_136 
REMARK       I    between atoms: CB_138  and  CG_141 
REMARK       I    between atoms: CG_141  and  CD_144 
REMARK       I    between atoms: CD_144  and  CE_147 
REMARK       I    between atoms: CE_147  and  NZ_150 
ROOT
ATOM      1  N   SER C   1       3.569  10.245  15.174  1.00  0.00    -0.064 N 
ATOM      2  H   SER C   1       2.745   9.774  14.440  1.00  0.00     0.275 HD
ATOM      3  H2  SER C   1       3.629   9.429  16.047  1.00  0.00     0.275 HD
ATOM      4  H3  SER C   1       4.605  10.065  14.597  1.00  0.00     0.275 HD
ATOM      5  CA  SER C   1       3.063  11.615  15.582  1.00  0.00     0.195 C 
ATOM      6  HA  SER C   1       1.885  11.612  15.760  1.00  0.00     0.102 H 
ATOM      7  C   SER C   1       3.501  12.536  14.439  1.00  0.00     0.251 C 
ATOM      8  O   SER C   1       4.647  12.524  13.986  1.00  0.00    -0.271 OA
ATOM      9  CB  SER C   1       3.799  12.126  16.857  1.00  0.00     0.051 C 
ATOM     10  HB2 SER C   1       3.206  13.039  17.332  1.00  0.00     0.077 H 
ATOM     11  HB3 SER C   1       4.948  12.406  16.702  1.00  0.00     0.077 H 
ATOM     12  OG  SER C   1       3.753  11.235  17.955  1.00  0.00    -0.398 OA
ATOM     13  HG  SER C   1       4.453  11.608  18.837  1.00  0.00     0.209 HD
ATOM     14  N   THR C   2       3.176  13.638  14.138  1.00  0.00    -0.344 N 
ATOM     15  H   THR C   2       4.048  14.270  14.649  1.00  0.00     0.163 HD
ATOM     16  CA  THR C   2       2.346  14.667  13.488  1.00  0.00     0.113 C 
ATOM     17  HA  THR C   2       1.425  13.956  13.229  1.00  0.00     0.091 H 
ATOM     18  C   THR C   2       2.981  15.156  12.204  1.00  0.00     0.243 C 
ATOM     19  O   THR C   2       4.203  15.087  12.043  1.00  0.00    -0.271 OA
ATOM     20  CB  THR C   2       2.162  15.872  14.413  1.00  0.00     0.060 C 
ATOM     21  HB  THR C   2       0.965  15.878  14.414  1.00  0.00     0.086 H 
ATOM     22  CG2 THR C   2       2.317  17.313  13.920  1.00  0.00    -0.050 C 
ATOM     23 1HG2 THR C   2       3.466  17.575  13.703  1.00  0.00     0.031 H 
ATOM     24 2HG2 THR C   2       2.141  18.070  14.837  1.00  0.00     0.031 H 
ATOM     25 3HG2 THR C   2       1.543  17.811  13.157  1.00  0.00     0.031 H 
ATOM     26  OG1 THR C   2       1.963  15.677  15.803  1.00  0.00    -0.393 OA
ATOM     27  HG1 THR C   2       2.797  16.235  16.434  1.00  0.00     0.210 HD
ATOM     28  N   PHE C   3       2.161  15.655  11.280  1.00  0.00    -0.346 N 
ATOM     29  H   PHE C   3       0.991  15.730  11.487  1.00  0.00     0.163 HD
ATOM     30  CA  PHE C   3       2.661  16.174  10.013  1.00  0.00     0.088 C 
ATOM     31  HA  PHE C   3       3.628  15.586   9.628  1.00  0.00     0.087 H 
ATOM     32  C   PHE C   3       2.753  17.694  10.052  1.00  0.00     0.221 C 
ATOM     33  O   PHE C   3       1.757  18.377  10.311  1.00  0.00    -0.278 OA
ATOM     34  CB  PHE C   3       1.729  15.779   8.865  1.00  0.00    -0.015 C 
ATOM     35  HB2 PHE C   3       2.121  14.859   8.187  1.00  0.00     0.043 H 
ATOM     36  HB3 PHE C   3       0.998  15.058   9.513  1.00  0.00     0.043 H 
ATOM     37  CG  PHE C   3       1.061  16.459   7.693  1.00  0.00    -0.059 A 
ATOM     38  CD1 PHE C   3       0.083  17.434   7.909  1.00  0.00    -0.088 A 
ATOM     39  HD1 PHE C   3      -0.616  17.283   8.853  1.00  0.00     0.078 H 
ATOM     40  CE1 PHE C   3      -0.688  17.887   6.827  1.00  0.00    -0.011 A 
ATOM     41  HE1 PHE C   3      -1.868  17.768   6.877  1.00  0.00     0.053 H 
ATOM     42  CZ  PHE C   3      -0.376  17.480   5.523  1.00  0.00    -0.095 A 
ATOM     43  HZ  PHE C   3      -0.904  17.886   4.540  1.00  0.00     0.077 H 
ATOM     44  CE2 PHE C   3       0.612  16.511   5.303  1.00  0.00    -0.085 A 
ATOM     45  HE2 PHE C   3       0.745  16.017   4.232  1.00  0.00     0.083 H 
ATOM     46  CD2 PHE C   3       1.388  16.062   6.381  1.00  0.00    -0.077 A 
ATOM     47  HD2 PHE C   3       2.370  15.552   5.951  1.00  0.00     0.084 H 
ATOM     48  N   ASP C   4       3.945  18.231   9.796  1.00  0.00    -0.247 NA
ATOM     49  H   ASP C   4       4.783  17.686  10.440  1.00  0.00     0.131 HD
ATOM     50  CA  ASP C   4       4.149  19.674   9.786  1.00  0.00     0.085 C 
ATOM     51  HA  ASP C   4       4.194  20.034  10.924  1.00  0.00     0.080 H 
ATOM     52  C   ASP C   4       3.158  20.352   8.849  1.00  0.00     0.236 C 
ATOM     53  O   ASP C   4       3.206  20.149   7.631  1.00  0.00    -0.272 OA
ATOM     54  CB  ASP C   4       5.565  20.014   9.315  1.00  0.00     0.039 C 
ATOM     55  HB2 ASP C   4       5.691  21.010   8.676  1.00  0.00     0.052 H 
ATOM     56  HB3 ASP C   4       6.315  20.127  10.231  1.00  0.00     0.052 H 
ATOM     57  CG  ASP C   4       6.321  18.931   8.524  1.00  0.00     0.174 C 
ATOM     58  OD1 ASP C   4       5.729  17.867   8.240  1.00  0.00    -0.648 OA
ATOM     59  OD2 ASP C   4       7.470  19.242   8.166  1.00  0.00    -0.648 OA
ATOM     60  N   GLU C   5       2.257  21.159   9.408  1.00  0.00    -0.346 N 
ATOM     61  H   GLU C   5       2.139  21.332  10.579  1.00  0.00     0.163 HD
ATOM     62  CA  GLU C   5       1.272  21.876   8.608  1.00  0.00     0.090 C 
ATOM     63  HA  GLU C   5       1.284  21.697   7.430  1.00  0.00     0.087 H 
ATOM     64  C   GLU C   5       1.532  23.377   8.651  1.00  0.00     0.241 C 
ATOM     65  O   GLU C   5       0.598  24.179   8.552  1.00  0.00    -0.271 OA
ATOM     66  CB  GLU C   5      -0.141  21.619   9.139  1.00  0.00    -0.029 C 
ATOM     67  HB2 GLU C   5      -0.244  20.602   9.756  1.00  0.00     0.037 H 
ATOM     68  HB3 GLU C   5      -0.589  22.451   9.870  1.00  0.00     0.037 H 
ATOM     69  CG  GLU C   5      -1.206  21.336   8.059  1.00  0.00     0.018 C 
ATOM     70  HG2 GLU C   5      -0.987  20.696   7.075  1.00  0.00     0.049 H 
ATOM     71  HG3 GLU C   5      -1.606  22.371   7.609  1.00  0.00     0.049 H 
ATOM     72  CD  GLU C   5      -2.543  20.749   8.534  1.00  0.00     0.172 C 
ATOM     73  OE1 GLU C   5      -3.484  21.544   8.720  1.00  0.00    -0.648 OA
ATOM     74  OE2 GLU C   5      -2.715  19.526   8.366  1.00  0.00    -0.648 OA
ATOM     75  N   VAL C   6       2.798  23.763   8.797  1.00  0.00    -0.346 N 
ATOM     76  H   VAL C   6       3.741  23.063   8.968  1.00  0.00     0.163 HD
ATOM     77  CA  VAL C   6       3.170  25.174   8.831  1.00  0.00     0.092 C 
ATOM     78  HA  VAL C   6       2.296  25.945   8.580  1.00  0.00     0.088 H 
ATOM     79  C   VAL C   6       4.143  25.503   7.707  1.00  0.00     0.241 C 
ATOM     80  O   VAL C   6       4.727  26.590   7.681  1.00  0.00    -0.271 OA
ATOM     81  CB  VAL C   6       3.840  25.521  10.162  1.00  0.00    -0.033 C 
ATOM     82  HB  VAL C   6       4.665  24.732  10.505  1.00  0.00     0.042 H 
ATOM     83  CG1 VAL C   6       4.640  26.818  10.342  1.00  0.00    -0.071 C 
ATOM     84 1HG1 VAL C   6       5.804  26.703  10.069  1.00  0.00     0.028 H 
ATOM     85 2HG1 VAL C   6       4.215  27.817   9.833  1.00  0.00     0.028 H 
ATOM     86 3HG1 VAL C   6       4.751  27.198  11.477  1.00  0.00     0.028 H 
ATOM     87  CG2 VAL C   6       2.765  25.470  11.231  1.00  0.00    -0.071 C 
ATOM     88 1HG2 VAL C   6       1.909  24.636  11.338  1.00  0.00     0.028 H 
ATOM     89 2HG2 VAL C   6       2.093  26.463  11.318  1.00  0.00     0.028 H 
ATOM     90 3HG2 VAL C   6       3.242  25.338  12.327  1.00  0.00     0.028 H 
ATOM     91  N   PHE C   7       4.318  24.566   6.776  1.00  0.00    -0.346 N 
ATOM     92  H   PHE C   7       3.391  23.934   6.397  1.00  0.00     0.163 HD
ATOM     93  CA  PHE C   7       5.208  24.771   5.641  1.00  0.00     0.093 C 
ATOM     94  HA  PHE C   7       6.053  25.584   5.880  1.00  0.00     0.088 H 
ATOM     95  C   PHE C   7       4.411  25.065   4.376  1.00  0.00     0.241 C 
ATOM     96  O   PHE C   7       3.613  24.233   3.930  1.00  0.00    -0.271 OA
ATOM     97  CB  PHE C   7       6.060  23.525   5.392  1.00  0.00    -0.014 C 
ATOM     98  HB2 PHE C   7       7.088  23.865   5.900  1.00  0.00     0.043 H 
ATOM     99  HB3 PHE C   7       5.668  22.644   6.104  1.00  0.00     0.043 H 
ATOM    100  CG  PHE C   7       6.469  22.671   4.212  1.00  0.00    -0.056 A 
ATOM    101  CD1 PHE C   7       5.516  21.919   3.512  1.00  0.00    -0.077 A 
ATOM    102  HD1 PHE C   7       4.353  21.746   3.657  1.00  0.00     0.084 H 
ATOM    103  CE1 PHE C   7       5.939  20.939   2.600  1.00  0.00    -0.082 A 
ATOM    104  HE1 PHE C   7       5.235  20.098   2.147  1.00  0.00     0.083 H 
ATOM    105  CZ  PHE C   7       7.299  20.841   2.271  1.00  0.00    -0.083 A 
ATOM    106  HZ  PHE C   7       7.661  20.106   1.413  1.00  0.00     0.083 H 
ATOM    107  CE2 PHE C   7       8.254  21.613   2.949  1.00  0.00    -0.082 A 
ATOM    108  HE2 PHE C   7       9.403  21.353   2.805  1.00  0.00     0.083 H 
ATOM    109  CD2 PHE C   7       7.832  22.592   3.858  1.00  0.00    -0.077 A 
ATOM    110  HD2 PHE C   7       8.725  23.352   4.048  1.00  0.00     0.084 H 
ATOM    111  N   TYR C   8       4.620  26.244   3.793  1.00  0.00    -0.346 N 
ATOM    112  H   TYR C   8       5.532  26.967   4.030  1.00  0.00     0.163 HD
ATOM    113  CA  TYR C   8       3.916  26.633   2.546  1.00  0.00     0.093 C 
ATOM    114  HA  TYR C   8       2.973  25.945   2.312  1.00  0.00     0.088 H 
ATOM    115  C   TYR C   8       4.909  26.665   1.367  1.00  0.00     0.241 C 
ATOM    116  O   TYR C   8       6.025  27.178   1.500  1.00  0.00    -0.271 OA
ATOM    117  CB  TYR C   8       3.288  28.020   2.694  1.00  0.00    -0.014 C 
ATOM    118  HB2 TYR C   8       4.110  28.828   2.357  1.00  0.00     0.043 H 
ATOM    119  HB3 TYR C   8       2.404  28.285   1.932  1.00  0.00     0.043 H 
ATOM    120  CG  TYR C   8       2.582  28.447   3.951  1.00  0.00    -0.056 A 
ATOM    121  CD1 TYR C   8       1.355  27.883   4.341  1.00  0.00    -0.074 A 
ATOM    122  HD1 TYR C   8       0.502  27.406   3.668  1.00  0.00     0.084 H 
ATOM    123  CE1 TYR C   8       0.840  28.185   5.613  1.00  0.00    -0.051 A 
ATOM    124  HE1 TYR C   8      -0.282  27.930   5.906  1.00  0.00     0.087 H 
ATOM    125  CZ  TYR C   8       1.552  29.062   6.456  1.00  0.00     0.065 A 
ATOM    126  OH  TYR C   8       1.127  29.278   7.738  1.00  0.00    -0.361 OA
ATOM    127  HH  TYR C   8       1.066  30.439   7.977  1.00  0.00     0.217 HD
ATOM    128  CE2 TYR C   8       2.706  29.726   6.006  1.00  0.00    -0.051 A 
ATOM    129  HE2 TYR C   8       3.231  30.631   6.567  1.00  0.00     0.087 H 
ATOM    130  CD2 TYR C   8       3.203  29.436   4.729  1.00  0.00    -0.074 A 
ATOM    131  HD2 TYR C   8       4.006  30.228   4.354  1.00  0.00     0.084 H 
ATOM    132  N   LYS C   9       4.546  26.132   0.205  1.00  0.00    -0.345 N 
ATOM    133  H   LYS C   9       3.541  25.508   0.120  1.00  0.00     0.163 HD
ATOM    134  CA  LYS C   9       5.446  26.214  -0.946  1.00  0.00     0.096 C 
ATOM    135  HA  LYS C   9       6.591  26.036  -0.671  1.00  0.00     0.089 H 
ATOM    136  C   LYS C   9       5.417  27.680  -1.532  1.00  0.00     0.196 C 
ATOM    137  O   LYS C   9       4.546  28.498  -1.140  1.00  0.00    -0.646 OA
ATOM    138  CB  LYS C   9       5.010  25.222  -2.159  1.00  0.00    -0.037 C 
ATOM    139  HB2 LYS C   9       5.229  25.878  -3.131  1.00  0.00     0.036 H 
ATOM    140  HB3 LYS C   9       3.815  25.131  -2.161  1.00  0.00     0.036 H 
ATOM    141  CG  LYS C   9       5.778  23.927  -2.411  1.00  0.00    -0.061 C 
ATOM    142  HG2 LYS C   9       5.689  23.218  -1.453  1.00  0.00     0.033 H 
ATOM    143  HG3 LYS C   9       6.943  24.150  -2.529  1.00  0.00     0.033 H 
ATOM    144  CD  LYS C   9       4.970  23.415  -3.599  1.00  0.00    -0.043 C 
ATOM    145  HD2 LYS C   9       4.650  24.155  -4.482  1.00  0.00     0.035 H 
ATOM    146  HD3 LYS C   9       3.895  23.054  -3.212  1.00  0.00     0.035 H 
ATOM    147  CE  LYS C   9       5.564  22.134  -4.138  1.00  0.00     0.080 C 
ATOM    148  HE2 LYS C   9       4.735  21.320  -4.435  1.00  0.00     0.075 H 
ATOM    149  HE3 LYS C   9       6.240  21.441  -3.435  1.00  0.00     0.075 H 
ATOM    150  NZ  LYS C   9       6.371  22.527  -5.302  1.00  0.00    -0.079 N 
ATOM    151  HZ1 LYS C   9       7.210  22.244  -6.132  1.00  0.00     0.274 HD
ATOM    152  HZ2 LYS C   9       5.438  22.573  -6.054  1.00  0.00     0.274 HD
ATOM    153  HZ3 LYS C   9       7.350  23.067  -4.847  1.00  0.00     0.274 HD
ATOM    154  OXT LYS C   9       6.285  27.974  -2.380  1.00  0.00    -0.646 OA
ENDROOT
TORSDOF 43
