REMARK  0 active torsions:
REMARK  status: ('A' for Active; 'I' for Inactive)
REMARK       I    between atoms: N_1  and  CA_5 
REMARK       I    between atoms: CA_5  and  C_7 
REMARK       I    between atoms: CA_5  and  CB_9 
REMARK       I    between atoms: CB_9  and  OG_12 
REMARK       I    between atoms: CA_16  and  CB_20 
REMARK       I    between atoms: CA_16  and  C_18 
REMARK       I    between atoms: C_18  and  N_28 
REMARK       I    between atoms: CB_20  and  CG2_22 
REMARK       I    between atoms: CB_20  and  OG1_26 
REMARK       I    between atoms: N_28  and  CA_30 
REMARK       I    between atoms: CA_30  and  CB_34 
REMARK       I    between atoms: CA_30  and  C_32 
REMARK       I    between atoms: C_32  and  N_48 
REMARK       I    between atoms: CB_34  and  CG_37 
REMARK       I    between atoms: N_48  and  CA_50 
REMARK       I    between atoms: CA_50  and  CB_54 
REMARK       I    between atoms: CA_50  and  C_52 
REMARK       I    between atoms: C_52  and  N_60 
REMARK       I    between atoms: CB_54  and  CG_57 
REMARK       I    between atoms: N_60  and  CA_62 
REMARK       I    between atoms: CA_62  and  C_64 
REMARK       I    between atoms: CA_62  and  CB_66 
REMARK       I    between atoms: C_64  and  N_75 
REMARK       I    between atoms: CB_66  and  CG_69 
REMARK       I    between atoms: CG_69  and  CD_72 
REMARK       I    between atoms: N_75  and  CA_77 
REMARK       I    between atoms: CA_77  and  CB_81 
REMARK       I    between atoms: CA_77  and  C_79 
REMARK       I    between atoms: C_79  and  N_91 
REMARK       I    between atoms: CB_81  and  CG1_83 
REMARK       I    between atoms: CB_81  and  CG2_87 
REMARK       I    between atoms: N_91  and  CA_93 
REMARK       I    between atoms: CA_93  and  CB_97 
REMARK       I    between atoms: CA_93  and  C_95 
REMARK       I    between atoms: C_95  and  N_111 
REMARK       I    between atoms: CB_97  and  CG_100 
REMARK       I    between atoms: N_111  and  CA_113 
REMARK       I    between atoms: CA_113  and  CB_117 
REMARK       I    between atoms: CA_113  and  C_115 
REMARK       I    between atoms: C_115  and  N_132 
REMARK       I    between atoms: CB_117  and  CG_120 
REMARK       I    between atoms: CZ_125  and  OH_126 
REMARK       I    between atoms: N_132  and  CA_134 
REMARK       I    between atoms: CA_134  and  CB_138 
REMARK       I    between atoms: CA_134  and  C_136 
REMARK       I    between atoms: CB_138  and  CG_141 
REMARK       I    between atoms: CG_141  and  CD_144 
REMARK       I    between atoms: CD_144  and  CE_147 
REMARK       I    between atoms: CE_147  and  NZ_150 
ROOT
ATOM      1  N   SER C   1       3.569  10.245  15.174  1.00  0.00    -0.065 N 
ATOM      2  H   SER C   1       3.214   9.932  14.072  1.00  0.00     0.275 HD
ATOM      3  H2  SER C   1       4.737   9.976  15.187  1.00  0.00     0.275 HD
ATOM      4  H3  SER C   1       3.098   9.365  15.840  1.00  0.00     0.275 HD
ATOM      5  CA  SER C   1       3.063  11.615  15.582  1.00  0.00     0.189 C 
ATOM      6  HA  SER C   1       1.909  11.407  15.809  1.00  0.00     0.102 H 
ATOM      7  C   SER C   1       3.501  12.536  14.439  1.00  0.00     0.205 A 
ATOM      8  O   SER C   1       4.647  12.524  13.986  1.00  0.00    -0.278 OA
ATOM      9  CB  SER C   1       3.799  12.126  16.857  1.00  0.00     0.051 C 
ATOM     10  HB2 SER C   1       3.335  13.000  17.531  1.00  0.00     0.077 H 
ATOM     11  HB3 SER C   1       4.944  12.412  16.677  1.00  0.00     0.077 H 
ATOM     12  OG  SER C   1       3.746  11.225  17.950  1.00  0.00    -0.398 OA
ATOM     13  HG  SER C   1       4.735  11.262  18.603  1.00  0.00     0.209 HD
ATOM     14  N   THR C   2       2.781  13.358  15.029  1.00  0.00    -0.344 N 
ATOM     15  H   THR C   2       2.167  13.990  15.828  1.00  0.00     0.163 HD
ATOM     16  CA  THR C   2       2.976  13.978  13.707  1.00  0.00     0.151 A 
ATOM     17  HA  THR C   2       2.851  13.214  12.793  1.00  0.00     0.101 H 
ATOM     18  C   THR C   2       4.245  14.801  13.667  1.00  0.00     0.249 C 
ATOM     19  O   THR C   2       4.714  15.282  14.703  1.00  0.00    -0.271 OA
ATOM     20  CB  THR C   2       1.803  14.901  13.368  1.00  0.00     0.065 C 
ATOM     21  HB  THR C   2       1.444  14.462  12.308  1.00  0.00     0.086 H 
ATOM     22  CG2 THR C   2       1.983  16.296  12.761  1.00  0.00    -0.050 C 
ATOM     23 1HG2 THR C   2       0.915  16.850  12.685  1.00  0.00     0.031 H 
ATOM     24 2HG2 THR C   2       2.350  16.871  13.742  1.00  0.00     0.031 H 
ATOM     25 3HG2 THR C   2       2.185  16.339  11.581  1.00  0.00     0.031 H 
ATOM     26  OG1 THR C   2       0.481  14.504  13.718  1.00  0.00    -0.393 OA
ATOM     27  HG1 THR C   2       0.086  15.127  14.645  1.00  0.00     0.210 HD
ATOM     28  N   PHE C   3       4.813  14.972  12.474  1.00  0.00    -0.345 N 
ATOM     29  H   PHE C   3       4.565  14.242  11.568  1.00  0.00     0.163 HD
ATOM     30  CA  PHE C   3       6.027  15.762  12.310  1.00  0.00     0.093 C 
ATOM     31  HA  PHE C   3       6.822  15.178  12.980  1.00  0.00     0.088 H 
ATOM     32  C   PHE C   3       5.804  17.196  12.775  1.00  0.00     0.241 C 
ATOM     33  O   PHE C   3       6.722  17.836  13.297  1.00  0.00    -0.271 OA
ATOM     34  CB  PHE C   3       6.453  15.795  10.841  1.00  0.00    -0.014 C 
ATOM     35  HB2 PHE C   3       5.669  16.189  10.032  1.00  0.00     0.043 H 
ATOM     36  HB3 PHE C   3       6.676  14.660  10.529  1.00  0.00     0.043 H 
ATOM     37  CG  PHE C   3       7.829  16.299  10.431  1.00  0.00    -0.056 A 
ATOM     38  CD1 PHE C   3       8.848  16.543  11.369  1.00  0.00    -0.077 A 
ATOM     39  HD1 PHE C   3       9.108  15.931  12.354  1.00  0.00     0.084 H 
ATOM     40  CE1 PHE C   3      10.083  17.073  10.963  1.00  0.00    -0.082 A 
ATOM     41  HE1 PHE C   3      11.021  17.173  11.687  1.00  0.00     0.083 H 
ATOM     42  CZ  PHE C   3      10.329  17.316   9.602  1.00  0.00    -0.083 A 
ATOM     43  HZ  PHE C   3      11.446  17.433   9.214  1.00  0.00     0.083 H 
ATOM     44  CE2 PHE C   3       9.331  17.043   8.656  1.00  0.00    -0.082 A 
ATOM     45  HE2 PHE C   3       9.618  17.114   7.505  1.00  0.00     0.083 H 
ATOM     46  CD2 PHE C   3       8.094  16.530   9.069  1.00  0.00    -0.077 A 
ATOM     47  HD2 PHE C   3       7.516  16.052   8.146  1.00  0.00     0.084 H 
ATOM     48  N   ASP C   4       4.588  17.706  12.589  1.00  0.00    -0.345 N 
ATOM     49  H   ASP C   4       4.056  17.517  11.547  1.00  0.00     0.163 HD
ATOM     50  CA  ASP C   4       4.252  19.060  13.011  1.00  0.00     0.098 C 
ATOM     51  HA  ASP C   4       3.196  19.539  12.727  1.00  0.00     0.088 H 
ATOM     52  C   ASP C   4       5.216  20.070  12.399  1.00  0.00     0.241 C 
ATOM     53  O   ASP C   4       5.705  20.969  13.090  1.00  0.00    -0.271 OA
ATOM     54  CB  ASP C   4       4.332  19.184  14.534  1.00  0.00     0.043 C 
ATOM     55  HB2 ASP C   4       3.277  18.951  15.051  1.00  0.00     0.052 H 
ATOM     56  HB3 ASP C   4       4.529  20.277  14.982  1.00  0.00     0.052 H 
ATOM     57  CG  ASP C   4       5.285  18.336  15.397  1.00  0.00     0.175 C 
ATOM     58  OD1 ASP C   4       6.088  17.592  14.784  1.00  0.00    -0.648 OA
ATOM     59  OD2 ASP C   4       5.231  18.489  16.647  1.00  0.00    -0.648 OA
ATOM     60  N   GLU C   5       5.492  19.928  11.103  1.00  0.00    -0.346 N 
ATOM     61  H   GLU C   5       4.734  19.434  10.333  1.00  0.00     0.163 HD
ATOM     62  CA  GLU C   5       6.385  20.846  10.406  1.00  0.00     0.090 C 
ATOM     63  HA  GLU C   5       6.369  21.899  10.964  1.00  0.00     0.087 H 
ATOM     64  C   GLU C   5       5.942  21.034   8.961  1.00  0.00     0.241 C 
ATOM     65  O   GLU C   5       6.368  20.290   8.072  1.00  0.00    -0.271 OA
ATOM     66  CB  GLU C   5       7.816  20.305  10.403  1.00  0.00    -0.029 C 
ATOM     67  HB2 GLU C   5       8.068  19.793  11.451  1.00  0.00     0.037 H 
ATOM     68  HB3 GLU C   5       8.112  19.591   9.495  1.00  0.00     0.037 H 
ATOM     69  CG  GLU C   5       8.890  21.413  10.378  1.00  0.00     0.018 C 
ATOM     70  HG2 GLU C   5       8.759  22.347  11.112  1.00  0.00     0.049 H 
ATOM     71  HG3 GLU C   5       9.030  21.916   9.303  1.00  0.00     0.049 H 
ATOM     72  CD  GLU C   5      10.313  21.002  10.730  1.00  0.00     0.172 C 
ATOM     73  OE1 GLU C   5      11.089  20.745   9.782  1.00  0.00    -0.648 OA
ATOM     74  OE2 GLU C   5      10.703  21.265  11.884  1.00  0.00    -0.648 OA
ATOM     75  N   VAL C   6       5.088  22.027   8.718  1.00  0.00    -0.346 N 
ATOM     76  H   VAL C   6       4.907  22.892   9.514  1.00  0.00     0.163 HD
ATOM     77  CA  VAL C   6       4.610  22.315   7.370  1.00  0.00     0.092 C 
ATOM     78  HA  VAL C   6       4.855  21.418   6.625  1.00  0.00     0.088 H 
ATOM     79  C   VAL C   6       5.104  23.678   6.902  1.00  0.00     0.241 C 
ATOM     80  O   VAL C   6       4.950  24.678   7.611  1.00  0.00    -0.271 OA
ATOM     81  CB  VAL C   6       3.081  22.320   7.332  1.00  0.00    -0.033 C 
ATOM     82  HB  VAL C   6       2.871  23.169   8.151  1.00  0.00     0.042 H 
ATOM     83  CG1 VAL C   6       2.345  23.170   6.289  1.00  0.00    -0.071 C 
ATOM     84 1HG1 VAL C   6       1.156  23.014   6.250  1.00  0.00     0.028 H 
ATOM     85 2HG1 VAL C   6       2.637  22.722   5.217  1.00  0.00     0.028 H 
ATOM     86 3HG1 VAL C   6       2.365  24.365   6.255  1.00  0.00     0.028 H 
ATOM     87  CG2 VAL C   6       2.252  21.348   8.177  1.00  0.00    -0.071 C 
ATOM     88 1HG2 VAL C   6       1.059  21.383   8.043  1.00  0.00     0.028 H 
ATOM     89 2HG2 VAL C   6       2.488  20.254   7.748  1.00  0.00     0.028 H 
ATOM     90 3HG2 VAL C   6       2.290  21.304   9.373  1.00  0.00     0.028 H 
ATOM     91  N   PHE C   7       5.696  23.721   5.710  1.00  0.00    -0.346 N 
ATOM     92  H   PHE C   7       5.784  22.796   4.967  1.00  0.00     0.163 HD
ATOM     93  CA  PHE C   7       6.193  24.971   5.147  1.00  0.00     0.093 C 
ATOM     94  HA  PHE C   7       6.098  25.892   5.899  1.00  0.00     0.088 H 
ATOM     95  C   PHE C   7       5.522  25.264   3.811  1.00  0.00     0.241 C 
ATOM     96  O   PHE C   7       5.816  24.611   2.804  1.00  0.00    -0.271 OA
ATOM     97  CB  PHE C   7       7.704  24.895   4.919  1.00  0.00    -0.014 C 
ATOM     98  HB2 PHE C   7       8.168  25.389   5.906  1.00  0.00     0.043 H 
ATOM     99  HB3 PHE C   7       8.088  23.766   5.025  1.00  0.00     0.043 H 
ATOM    100  CG  PHE C   7       8.734  25.274   3.878  1.00  0.00    -0.056 A 
ATOM    101  CD1 PHE C   7       8.784  24.603   2.640  1.00  0.00    -0.077 A 
ATOM    102  HD1 PHE C   7       8.222  23.618   2.290  1.00  0.00     0.084 H 
ATOM    103  CE1 PHE C   7       9.899  24.770   1.808  1.00  0.00    -0.082 A 
ATOM    104  HE1 PHE C   7      10.193  24.036   0.921  1.00  0.00     0.083 H 
ATOM    105  CZ  PHE C   7      10.862  25.744   2.122  1.00  0.00    -0.083 A 
ATOM    106  HZ  PHE C   7      11.734  25.994   1.355  1.00  0.00     0.083 H 
ATOM    107  CE2 PHE C   7      10.804  26.427   3.352  1.00  0.00    -0.082 A 
ATOM    108  HE2 PHE C   7      11.744  27.089   3.649  1.00  0.00     0.083 H 
ATOM    109  CD2 PHE C   7       9.695  26.269   4.173  1.00  0.00    -0.077 A 
ATOM    110  HD2 PHE C   7       9.639  27.163   4.954  1.00  0.00     0.084 H 
ATOM    111  N   TYR C   8       4.620  26.244   3.793  1.00  0.00    -0.346 N 
ATOM    112  H   TYR C   8       4.583  27.012   4.695  1.00  0.00     0.163 HD
ATOM    113  CA  TYR C   8       3.916  26.633   2.546  1.00  0.00     0.093 C 
ATOM    114  HA  TYR C   8       3.070  25.796   2.470  1.00  0.00     0.088 H 
ATOM    115  C   TYR C   8       4.909  26.665   1.367  1.00  0.00     0.241 C 
ATOM    116  O   TYR C   8       6.025  27.178   1.500  1.00  0.00    -0.271 OA
ATOM    117  CB  TYR C   8       3.288  28.020   2.694  1.00  0.00    -0.014 C 
ATOM    118  HB2 TYR C   8       2.415  28.156   1.886  1.00  0.00     0.043 H 
ATOM    119  HB3 TYR C   8       4.050  28.887   2.381  1.00  0.00     0.043 H 
ATOM    120  CG  TYR C   8       2.583  28.447   3.953  1.00  0.00    -0.056 A 
ATOM    121  CD1 TYR C   8       1.365  27.871   4.354  1.00  0.00    -0.074 A 
ATOM    122  HD1 TYR C   8       0.538  27.378   3.658  1.00  0.00     0.084 H 
ATOM    123  CE1 TYR C   8       0.846  28.172   5.631  1.00  0.00    -0.051 A 
ATOM    124  HE1 TYR C   8      -0.223  27.802   5.992  1.00  0.00     0.087 H 
ATOM    125  CZ  TYR C   8       1.553  29.047   6.474  1.00  0.00     0.065 A 
ATOM    126  OH  TYR C   8       1.132  29.258   7.752  1.00  0.00    -0.361 OA
ATOM    127  HH  TYR C   8       1.890  28.749   8.506  1.00  0.00     0.217 HD
ATOM    128  CE2 TYR C   8       2.707  29.714   6.026  1.00  0.00    -0.051 A 
ATOM    129  HE2 TYR C   8       3.159  30.603   6.672  1.00  0.00     0.087 H 
ATOM    130  CD2 TYR C   8       3.203  29.430   4.740  1.00  0.00    -0.074 A 
ATOM    131  HD2 TYR C   8       3.907  30.318   4.383  1.00  0.00     0.084 H 
ATOM    132  N   LYS C   9       4.546  26.132   0.205  1.00  0.00    -0.345 N 
ATOM    133  H   LYS C   9       3.417  25.787   0.071  1.00  0.00     0.163 HD
ATOM    134  CA  LYS C   9       5.446  26.214  -0.946  1.00  0.00     0.096 C 
ATOM    135  HA  LYS C   9       6.601  26.052  -0.707  1.00  0.00     0.089 H 
ATOM    136  C   LYS C   9       5.417  27.680  -1.532  1.00  0.00     0.196 C 
ATOM    137  O   LYS C   9       4.546  28.498  -1.140  1.00  0.00    -0.646 OA
ATOM    138  CB  LYS C   9       5.010  25.222  -2.159  1.00  0.00    -0.037 C 
ATOM    139  HB2 LYS C   9       5.150  25.909  -3.126  1.00  0.00     0.036 H 
ATOM    140  HB3 LYS C   9       3.830  25.085  -2.034  1.00  0.00     0.036 H 
ATOM    141  CG  LYS C   9       5.790  23.915  -2.414  1.00  0.00    -0.061 C 
ATOM    142  HG2 LYS C   9       6.944  24.128  -2.642  1.00  0.00     0.033 H 
ATOM    143  HG3 LYS C   9       5.766  23.215  -1.446  1.00  0.00     0.033 H 
ATOM    144  CD  LYS C   9       4.982  23.404  -3.602  1.00  0.00    -0.043 C 
ATOM    145  HD2 LYS C   9       3.948  22.981  -3.155  1.00  0.00     0.035 H 
ATOM    146  HD3 LYS C   9       4.565  24.097  -4.481  1.00  0.00     0.035 H 
ATOM    147  CE  LYS C   9       5.564  22.118  -4.152  1.00  0.00     0.080 C 
ATOM    148  HE2 LYS C   9       6.206  21.416  -3.428  1.00  0.00     0.075 H 
ATOM    149  HE3 LYS C   9       4.702  21.342  -4.450  1.00  0.00     0.075 H 
ATOM    150  NZ  LYS C   9       6.370  22.517  -5.302  1.00  0.00    -0.079 N 
ATOM    151  HZ1 LYS C   9       6.198  21.690  -6.153  1.00  0.00     0.274 HD
ATOM    152  HZ2 LYS C   9       7.534  22.414  -5.041  1.00  0.00     0.274 HD
ATOM    153  HZ3 LYS C   9       6.370  23.514  -5.968  1.00  0.00     0.274 HD
ATOM    154  OXT LYS C   9       6.286  28.049  -2.415  1.00  0.00    -0.646 OA
ENDROOT
TORSDOF 42
