REMARK  0 active torsions:
REMARK  status: ('A' for Active; 'I' for Inactive)
REMARK       I    between atoms: N_1  and  CA_5 
REMARK       I    between atoms: CA_5  and  C_7 
REMARK       I    between atoms: CA_5  and  CB_9 
REMARK       I    between atoms: C_7  and  N_14 
REMARK       I    between atoms: CB_9  and  OG_12 
REMARK       I    between atoms: N_14  and  CA_16 
REMARK       I    between atoms: CA_16  and  CB_20 
REMARK       I    between atoms: CA_16  and  C_18 
REMARK       I    between atoms: C_18  and  N_28 
REMARK       I    between atoms: CB_20  and  OG1_26 
REMARK       I    between atoms: CB_20  and  CG2_22 
REMARK       I    between atoms: N_28  and  CA_30 
REMARK       I    between atoms: CA_30  and  CB_34 
REMARK       I    between atoms: CA_30  and  C_32 
REMARK       I    between atoms: C_32  and  N_48 
REMARK       I    between atoms: CB_34  and  CG_37 
REMARK       I    between atoms: N_48  and  CA_50 
REMARK       I    between atoms: CA_50  and  CB_54 
REMARK       I    between atoms: CA_50  and  C_52 
REMARK       I    between atoms: C_52  and  N_60 
REMARK       I    between atoms: CB_54  and  CG_57 
REMARK       I    between atoms: N_60  and  CA_62 
REMARK       I    between atoms: CA_62  and  C_64 
REMARK       I    between atoms: CA_62  and  CB_66 
REMARK       I    between atoms: C_64  and  N_75 
REMARK       I    between atoms: CB_66  and  CG_69 
REMARK       I    between atoms: CG_69  and  CD_72 
REMARK       I    between atoms: N_75  and  CA_77 
REMARK       I    between atoms: CA_77  and  C_79 
REMARK       I    between atoms: CA_77  and  CB_81 
REMARK       I    between atoms: C_79  and  N_91 
REMARK       I    between atoms: CB_81  and  CG1_83 
REMARK       I    between atoms: CB_81  and  CG2_87 
REMARK       I    between atoms: N_91  and  CA_93 
REMARK       I    between atoms: CA_93  and  CB_97 
REMARK       I    between atoms: CA_93  and  C_95 
REMARK       I    between atoms: C_95  and  N_111 
REMARK       I    between atoms: CB_97  and  CG_100 
REMARK       I    between atoms: N_111  and  CA_113 
REMARK       I    between atoms: CA_113  and  C_115 
REMARK       I    between atoms: CA_113  and  CB_117 
REMARK       I    between atoms: C_115  and  N_132 
REMARK       I    between atoms: CB_117  and  CG_120 
REMARK       I    between atoms: CZ_125  and  OH_126 
REMARK       I    between atoms: N_132  and  CA_134 
REMARK       I    between atoms: CA_134  and  CB_138 
REMARK       I    between atoms: CA_134  and  C_136 
REMARK       I    between atoms: CB_138  and  CG_141 
REMARK       I    between atoms: CG_141  and  CD_144 
REMARK       I    between atoms: CD_144  and  CE_147 
REMARK       I    between atoms: CE_147  and  NZ_150 
ROOT
ATOM      1  N   SER C   1       3.569  10.245  15.174  1.00  0.00    -0.064 N 
ATOM      2  H   SER C   1       2.855   9.385  15.608  1.00  0.00     0.275 HD
ATOM      3  H2  SER C   1       4.662   9.893  15.515  1.00  0.00     0.275 HD
ATOM      4  H3  SER C   1       3.546  10.010  13.999  1.00  0.00     0.275 HD
ATOM      5  CA  SER C   1       3.063  11.615  15.582  1.00  0.00     0.195 C 
ATOM      6  HA  SER C   1       1.896  11.505  15.804  1.00  0.00     0.102 H 
ATOM      7  C   SER C   1       3.501  12.536  14.439  1.00  0.00     0.251 C 
ATOM      8  O   SER C   1       4.647  12.524  13.986  1.00  0.00    -0.271 OA
ATOM      9  CB  SER C   1       3.799  12.126  16.857  1.00  0.00     0.051 C 
ATOM     10  HB2 SER C   1       3.228  13.069  17.321  1.00  0.00     0.077 H 
ATOM     11  HB3 SER C   1       4.947  12.423  16.707  1.00  0.00     0.077 H 
ATOM     12  OG  SER C   1       3.742  11.225  17.948  1.00  0.00    -0.398 OA
ATOM     13  HG  SER C   1       4.480  11.562  18.812  1.00  0.00     0.209 HD
ATOM     14  N   THR C   2       2.645  13.462  14.123  1.00  0.00    -0.344 N 
ATOM     15  H   THR C   2       1.811  13.811  14.896  1.00  0.00     0.163 HD
ATOM     16  CA  THR C   2       2.846  14.378  12.987  1.00  0.00     0.113 C 
ATOM     17  HA  THR C   2       3.255  13.604  12.175  1.00  0.00     0.091 H 
ATOM     18  C   THR C   2       3.766  15.521  13.358  1.00  0.00     0.243 C 
ATOM     19  O   THR C   2       3.873  15.884  14.534  1.00  0.00    -0.271 OA
ATOM     20  CB  THR C   2       1.511  14.974  12.535  1.00  0.00     0.060 C 
ATOM     21  HB  THR C   2       1.592  14.702  11.369  1.00  0.00     0.086 H 
ATOM     22  CG2 THR C   2       1.324  16.477  12.301  1.00  0.00    -0.050 C 
ATOM     23 1HG2 THR C   2       1.082  16.862  13.412  1.00  0.00     0.031 H 
ATOM     24 2HG2 THR C   2       0.276  16.624  11.731  1.00  0.00     0.031 H 
ATOM     25 3HG2 THR C   2       1.939  17.404  11.871  1.00  0.00     0.031 H 
ATOM     26  OG1 THR C   2       0.352  14.150  12.528  1.00  0.00    -0.393 OA
ATOM     27  HG1 THR C   2      -0.407  14.486  13.375  1.00  0.00     0.210 HD
ATOM     28  N   PHE C   3       4.439  16.099  12.364  1.00  0.00    -0.346 N 
ATOM     29  H   PHE C   3       4.805  15.314  11.546  1.00  0.00     0.163 HD
ATOM     30  CA  PHE C   3       5.339  17.221  12.598  1.00  0.00     0.088 C 
ATOM     31  HA  PHE C   3       5.055  17.811  13.594  1.00  0.00     0.087 H 
ATOM     32  C   PHE C   3       5.202  18.262  11.495  1.00  0.00     0.221 C 
ATOM     33  O   PHE C   3       5.911  19.273  11.494  1.00  0.00    -0.278 OA
ATOM     34  CB  PHE C   3       6.793  16.746  12.632  1.00  0.00    -0.014 C 
ATOM     35  HB2 PHE C   3       6.866  15.855  13.426  1.00  0.00     0.043 H 
ATOM     36  HB3 PHE C   3       7.173  16.402  11.553  1.00  0.00     0.043 H 
ATOM     37  CG  PHE C   3       8.004  17.529  13.114  1.00  0.00    -0.056 A 
ATOM     38  CD1 PHE C   3       7.915  18.801  13.703  1.00  0.00    -0.077 A 
ATOM     39  HD1 PHE C   3       7.117  19.166  14.503  1.00  0.00     0.084 H 
ATOM     40  CE1 PHE C   3       9.091  19.513  14.012  1.00  0.00    -0.082 A 
ATOM     41  HE1 PHE C   3       9.095  20.646  14.370  1.00  0.00     0.083 H 
ATOM     42  CZ  PHE C   3      10.348  18.922  13.809  1.00  0.00    -0.083 A 
ATOM     43  HZ  PHE C   3      11.338  19.514  14.092  1.00  0.00     0.083 H 
ATOM     44  CE2 PHE C   3      10.441  17.632  13.287  1.00  0.00    -0.082 A 
ATOM     45  HE2 PHE C   3      11.526  17.171  13.142  1.00  0.00     0.083 H 
ATOM     46  CD2 PHE C   3       9.266  16.937  12.941  1.00  0.00    -0.077 A 
ATOM     47  HD2 PHE C   3       9.533  15.810  12.672  1.00  0.00     0.084 H 
ATOM     48  N   ASP C   4       4.292  18.022  10.551  1.00  0.00    -0.247 NA
ATOM     49  H   ASP C   4       4.760  17.074  10.001  1.00  0.00     0.131 HD
ATOM     50  CA  ASP C   4       4.059  18.956   9.457  1.00  0.00     0.085 C 
ATOM     51  HA  ASP C   4       5.046  19.479   9.036  1.00  0.00     0.080 H 
ATOM     52  C   ASP C   4       3.062  20.031   9.869  1.00  0.00     0.236 C 
ATOM     53  O   ASP C   4       2.080  20.280   9.162  1.00  0.00    -0.272 OA
ATOM     54  CB  ASP C   4       3.499  18.224   8.235  1.00  0.00     0.039 C 
ATOM     55  HB2 ASP C   4       2.805  18.808   7.456  1.00  0.00     0.052 H 
ATOM     56  HB3 ASP C   4       4.405  17.848   7.545  1.00  0.00     0.052 H 
ATOM     57  CG  ASP C   4       2.696  16.931   8.407  1.00  0.00     0.174 C 
ATOM     58  OD1 ASP C   4       2.462  16.565   9.570  1.00  0.00    -0.648 OA
ATOM     59  OD2 ASP C   4       2.302  16.379   7.363  1.00  0.00    -0.648 OA
ATOM     60  N   GLU C   5       3.306  20.672  11.011  1.00  0.00    -0.346 N 
ATOM     61  H   GLU C   5       3.901  20.243  11.939  1.00  0.00     0.163 HD
ATOM     62  CA  GLU C   5       2.431  21.733  11.495  1.00  0.00     0.090 C 
ATOM     63  HA  GLU C   5       1.284  21.412  11.416  1.00  0.00     0.087 H 
ATOM     64  C   GLU C   5       2.538  22.967  10.608  1.00  0.00     0.241 C 
ATOM     65  O   GLU C   5       1.856  23.970  10.844  1.00  0.00    -0.271 OA
ATOM     66  CB  GLU C   5       2.812  22.134  12.922  1.00  0.00    -0.029 C 
ATOM     67  HB2 GLU C   5       3.616  21.554  13.596  1.00  0.00     0.037 H 
ATOM     68  HB3 GLU C   5       3.337  23.211  12.923  1.00  0.00     0.037 H 
ATOM     69  CG  GLU C   5       1.692  22.343  13.951  1.00  0.00     0.018 C 
ATOM     70  HG2 GLU C   5       0.928  23.247  13.781  1.00  0.00     0.049 H 
ATOM     71  HG3 GLU C   5       0.982  21.387  14.055  1.00  0.00     0.049 H 
ATOM     72  CD  GLU C   5       2.186  22.550  15.390  1.00  0.00     0.172 C 
ATOM     73  OE1 GLU C   5       2.268  23.721  15.809  1.00  0.00    -0.648 OA
ATOM     74  OE2 GLU C   5       2.169  21.549  16.136  1.00  0.00    -0.648 OA
ATOM     75  N   VAL C   6       3.390  22.901   9.587  1.00  0.00    -0.346 N 
ATOM     76  H   VAL C   6       4.178  22.048   9.348  1.00  0.00     0.163 HD
ATOM     77  CA  VAL C   6       3.561  24.014   8.659  1.00  0.00     0.092 C 
ATOM     78  HA  VAL C   6       2.773  24.875   8.905  1.00  0.00     0.088 H 
ATOM     79  C   VAL C   6       3.470  23.533   7.217  1.00  0.00     0.241 C 
ATOM     80  O   VAL C   6       4.189  22.613   6.815  1.00  0.00    -0.271 OA
ATOM     81  CB  VAL C   6       4.927  24.675   8.858  1.00  0.00    -0.033 C 
ATOM     82  HB  VAL C   6       5.520  23.639   8.757  1.00  0.00     0.042 H 
ATOM     83  CG1 VAL C   6       5.615  25.265   7.635  1.00  0.00    -0.071 C 
ATOM     84 1HG1 VAL C   6       6.741  24.976   7.939  1.00  0.00     0.028 H 
ATOM     85 2HG1 VAL C   6       5.701  24.662   6.599  1.00  0.00     0.028 H 
ATOM     86 3HG1 VAL C   6       4.742  26.061   7.453  1.00  0.00     0.028 H 
ATOM     87  CG2 VAL C   6       5.550  24.784  10.253  1.00  0.00    -0.071 C 
ATOM     88 1HG2 VAL C   6       6.598  25.327  10.473  1.00  0.00     0.028 H 
ATOM     89 2HG2 VAL C   6       4.793  25.437  10.917  1.00  0.00     0.028 H 
ATOM     90 3HG2 VAL C   6       5.836  23.816  10.904  1.00  0.00     0.028 H 
ATOM     91  N   PHE C   7       2.586  24.152   6.436  1.00  0.00    -0.346 N 
ATOM     92  H   PHE C   7       1.876  25.044   6.776  1.00  0.00     0.163 HD
ATOM     93  CA  PHE C   7       2.420  23.794   5.032  1.00  0.00     0.088 C 
ATOM     94  HA  PHE C   7       3.072  22.927   4.534  1.00  0.00     0.087 H 
ATOM     95  C   PHE C   7       2.709  24.989   4.133  1.00  0.00     0.221 C 
ATOM     96  O   PHE C   7       1.879  25.360   3.296  1.00  0.00    -0.278 OA
ATOM     97  CB  PHE C   7       0.989  23.325   4.762  1.00  0.00    -0.014 C 
ATOM     98  HB2 PHE C   7       0.234  23.868   5.516  1.00  0.00     0.043 H 
ATOM     99  HB3 PHE C   7       1.018  22.203   5.179  1.00  0.00     0.043 H 
ATOM    100  CG  PHE C   7      -0.054  23.178   3.674  1.00  0.00    -0.056 A 
ATOM    101  CD1 PHE C   7      -0.716  24.322   3.206  1.00  0.00    -0.077 A 
ATOM    102  HD1 PHE C   7      -0.690  25.460   3.546  1.00  0.00     0.084 H 
ATOM    103  CE1 PHE C   7      -1.889  24.173   2.437  1.00  0.00    -0.082 A 
ATOM    104  HE1 PHE C   7      -2.583  25.077   2.104  1.00  0.00     0.083 H 
ATOM    105  CZ  PHE C   7      -2.240  22.901   1.966  1.00  0.00    -0.083 A 
ATOM    106  HZ  PHE C   7      -3.105  22.782   1.161  1.00  0.00     0.083 H 
ATOM    107  CE2 PHE C   7      -1.574  21.762   2.420  1.00  0.00    -0.082 A 
ATOM    108  HE2 PHE C   7      -2.074  20.698   2.254  1.00  0.00     0.083 H 
ATOM    109  CD2 PHE C   7      -0.394  21.904   3.178  1.00  0.00    -0.077 A 
ATOM    110  HD2 PHE C   7       0.291  20.939   3.069  1.00  0.00     0.084 H 
ATOM    111  N   TYR C   8       3.883  25.596   4.298  1.00  0.00    -0.247 NA
ATOM    112  H   TYR C   8       4.779  24.814   4.293  1.00  0.00     0.131 HD
ATOM    113  CA  TYR C   8       4.284  26.758   3.467  1.00  0.00     0.080 C 
ATOM    114  HA  TYR C   8       3.433  27.589   3.389  1.00  0.00     0.079 H 
ATOM    115  C   TYR C   8       4.470  26.319   2.000  1.00  0.00     0.236 C 
ATOM    116  O   TYR C   8       5.068  25.272   1.730  1.00  0.00    -0.272 OA
ATOM    117  CB  TYR C   8       5.601  27.351   3.971  1.00  0.00    -0.018 C 
ATOM    118  HB2 TYR C   8       6.540  26.847   3.430  1.00  0.00     0.043 H 
ATOM    119  HB3 TYR C   8       5.667  28.470   3.549  1.00  0.00     0.043 H 
ATOM    120  CG  TYR C   8       5.897  27.545   5.431  1.00  0.00    -0.056 A 
ATOM    121  CD1 TYR C   8       5.188  28.471   6.220  1.00  0.00    -0.074 A 
ATOM    122  HD1 TYR C   8       4.654  29.458   5.826  1.00  0.00     0.084 H 
ATOM    123  CE1 TYR C   8       5.377  28.480   7.611  1.00  0.00    -0.051 A 
ATOM    124  HE1 TYR C   8       4.882  29.348   8.254  1.00  0.00     0.087 H 
ATOM    125  CZ  TYR C   8       6.299  27.581   8.191  1.00  0.00     0.065 A 
ATOM    126  OH  TYR C   8       6.398  27.489   9.547  1.00  0.00    -0.361 OA
ATOM    127  HH  TYR C   8       7.098  28.353   9.963  1.00  0.00     0.217 HD
ATOM    128  CE2 TYR C   8       7.118  26.770   7.377  1.00  0.00    -0.051 A 
ATOM    129  HE2 TYR C   8       8.269  26.854   7.678  1.00  0.00     0.087 H 
ATOM    130  CD2 TYR C   8       6.910  26.747   5.990  1.00  0.00    -0.074 A 
ATOM    131  HD2 TYR C   8       7.892  26.440   5.391  1.00  0.00     0.084 H 
ATOM    132  N   LYS C   9       4.546  26.132   0.205  1.00  0.00    -0.345 N 
ATOM    133  H   LYS C   9       3.374  26.291   0.101  1.00  0.00     0.163 HD
ATOM    134  CA  LYS C   9       5.446  26.214  -0.946  1.00  0.00     0.096 C 
ATOM    135  HA  LYS C   9       6.565  26.118  -0.550  1.00  0.00     0.089 H 
ATOM    136  C   LYS C   9       5.417  27.680  -1.532  1.00  0.00     0.196 C 
ATOM    137  O   LYS C   9       4.546  28.498  -1.140  1.00  0.00    -0.646 OA
ATOM    138  CB  LYS C   9       5.010  25.222  -2.159  1.00  0.00    -0.037 C 
ATOM    139  HB2 LYS C   9       3.851  25.032  -1.944  1.00  0.00     0.036 H 
ATOM    140  HB3 LYS C   9       5.106  25.947  -3.104  1.00  0.00     0.036 H 
ATOM    141  CG  LYS C   9       5.793  23.922  -2.413  1.00  0.00    -0.061 C 
ATOM    142  HG2 LYS C   9       5.765  23.216  -1.448  1.00  0.00     0.033 H 
ATOM    143  HG3 LYS C   9       6.953  24.144  -2.597  1.00  0.00     0.033 H 
ATOM    144  CD  LYS C   9       4.983  23.400  -3.601  1.00  0.00    -0.043 C 
ATOM    145  HD2 LYS C   9       4.678  24.123  -4.505  1.00  0.00     0.035 H 
ATOM    146  HD3 LYS C   9       3.917  23.013  -3.214  1.00  0.00     0.035 H 
ATOM    147  CE  LYS C   9       5.567  22.120  -4.149  1.00  0.00     0.080 C 
ATOM    148  HE2 LYS C   9       6.173  21.407  -3.401  1.00  0.00     0.075 H 
ATOM    149  HE3 LYS C   9       4.740  21.329  -4.510  1.00  0.00     0.075 H 
ATOM    150  NZ  LYS C   9       6.376  22.512  -5.309  1.00  0.00    -0.079 N 
ATOM    151  HZ1 LYS C   9       5.786  22.796  -6.314  1.00  0.00     0.274 HD
ATOM    152  HZ2 LYS C   9       7.255  23.323  -5.232  1.00  0.00     0.274 HD
ATOM    153  HZ3 LYS C   9       6.999  21.546  -5.660  1.00  0.00     0.274 HD
ATOM    154  OXT LYS C   9       6.259  28.019  -2.349  1.00  0.00    -0.646 OA
ENDROOT
TORSDOF 43
