REMARK  0 active torsions:
REMARK  status: ('A' for Active; 'I' for Inactive)
REMARK       I    between atoms: N_1  and  CA_5 
REMARK       I    between atoms: CA_5  and  C_7 
REMARK       I    between atoms: CA_5  and  CB_9 
REMARK       I    between atoms: CB_9  and  OG_12 
REMARK       I    between atoms: CA_16  and  CB_20 
REMARK       I    between atoms: CA_16  and  C_18 
REMARK       I    between atoms: C_18  and  N_28 
REMARK       I    between atoms: CB_20  and  OG1_26 
REMARK       I    between atoms: CB_20  and  CG2_22 
REMARK       I    between atoms: N_28  and  CA_30 
REMARK       I    between atoms: CA_30  and  CB_34 
REMARK       I    between atoms: CA_30  and  C_32 
REMARK       I    between atoms: C_32  and  N_48 
REMARK       I    between atoms: CB_34  and  CG_37 
REMARK       I    between atoms: N_48  and  CA_50 
REMARK       I    between atoms: CA_50  and  C_52 
REMARK       I    between atoms: CA_50  and  CB_54 
REMARK       I    between atoms: C_52  and  N_60 
REMARK       I    between atoms: CB_54  and  CG_57 
REMARK       I    between atoms: N_60  and  CA_62 
REMARK       I    between atoms: CA_62  and  C_64 
REMARK       I    between atoms: CA_62  and  CB_66 
REMARK       I    between atoms: C_64  and  N_75 
REMARK       I    between atoms: CB_66  and  CG_69 
REMARK       I    between atoms: CG_69  and  CD_72 
REMARK       I    between atoms: N_75  and  CA_77 
REMARK       I    between atoms: CA_77  and  C_79 
REMARK       I    between atoms: CA_77  and  CB_81 
REMARK       I    between atoms: C_79  and  N_91 
REMARK       I    between atoms: CB_81  and  CG1_83 
REMARK       I    between atoms: CB_81  and  CG2_87 
REMARK       I    between atoms: N_91  and  CA_93 
REMARK       I    between atoms: CA_93  and  C_95 
REMARK       I    between atoms: CA_93  and  CB_97 
REMARK       I    between atoms: C_95  and  N_111 
REMARK       I    between atoms: CB_97  and  CG_100 
REMARK       I    between atoms: N_111  and  CA_113 
REMARK       I    between atoms: CA_113  and  CB_117 
REMARK       I    between atoms: CA_113  and  C_115 
REMARK       I    between atoms: C_115  and  N_132 
REMARK       I    between atoms: CB_117  and  CG_120 
REMARK       I    between atoms: CZ_125  and  OH_126 
REMARK       I    between atoms: N_132  and  CA_134 
REMARK       I    between atoms: CA_134  and  CB_138 
REMARK       I    between atoms: CA_134  and  C_136 
REMARK       I    between atoms: CB_138  and  CG_141 
REMARK       I    between atoms: CG_141  and  CD_144 
REMARK       I    between atoms: CD_144  and  CE_147 
REMARK       I    between atoms: CE_147  and  NZ_150 
ROOT
ATOM      1  N   SER C   1       3.569  10.245  15.174  1.00  0.00    -0.065 N 
ATOM      2  H   SER C   1       3.457   9.421  16.039  1.00  0.00     0.275 HD
ATOM      3  H2  SER C   1       2.865   9.780  14.320  1.00  0.00     0.275 HD
ATOM      4  H3  SER C   1       4.686  10.042  14.790  1.00  0.00     0.275 HD
ATOM      5  CA  SER C   1       3.063  11.615  15.582  1.00  0.00     0.189 C 
ATOM      6  HA  SER C   1       1.930  11.424  15.905  1.00  0.00     0.102 H 
ATOM      7  C   SER C   1       3.501  12.536  14.439  1.00  0.00     0.205 A 
ATOM      8  O   SER C   1       4.647  12.524  13.986  1.00  0.00    -0.278 OA
ATOM      9  CB  SER C   1       3.799  12.126  16.857  1.00  0.00     0.051 C 
ATOM     10  HB2 SER C   1       3.279  13.108  17.300  1.00  0.00     0.077 H 
ATOM     11  HB3 SER C   1       4.970  12.337  16.743  1.00  0.00     0.077 H 
ATOM     12  OG  SER C   1       3.739  11.224  17.947  1.00  0.00    -0.398 OA
ATOM     13  HG  SER C   1       4.276  11.682  18.900  1.00  0.00     0.209 HD
ATOM     14  N   THR C   2       2.176  13.416  14.572  1.00  0.00    -0.344 N 
ATOM     15  H   THR C   2       1.397  13.960  15.283  1.00  0.00     0.163 HD
ATOM     16  CA  THR C   2       2.830  13.555  13.259  1.00  0.00     0.151 A 
ATOM     17  HA  THR C   2       2.705  12.480  12.740  1.00  0.00     0.101 H 
ATOM     18  C   THR C   2       4.074  14.411  13.352  1.00  0.00     0.249 C 
ATOM     19  O   THR C   2       4.190  15.255  14.247  1.00  0.00    -0.271 OA
ATOM     20  CB  THR C   2       1.881  14.210  12.253  1.00  0.00     0.065 C 
ATOM     21  HB  THR C   2       1.913  13.478  11.298  1.00  0.00     0.086 H 
ATOM     22  CG2 THR C   2       2.289  15.431  11.431  1.00  0.00    -0.050 C 
ATOM     23 1HG2 THR C   2       2.638  16.501  10.995  1.00  0.00     0.031 H 
ATOM     24 2HG2 THR C   2       1.242  15.516  10.837  1.00  0.00     0.031 H 
ATOM     25 3HG2 THR C   2       2.143  16.011  12.480  1.00  0.00     0.031 H 
ATOM     26  OG1 THR C   2       0.502  13.865  12.289  1.00  0.00    -0.393 OA
ATOM     27  HG1 THR C   2      -0.081  14.603  13.010  1.00  0.00     0.210 HD
ATOM     28  N   PHE C   3       5.016  14.204  12.433  1.00  0.00    -0.346 N 
ATOM     29  H   PHE C   3       5.037  13.310  11.647  1.00  0.00     0.163 HD
ATOM     30  CA  PHE C   3       6.249  14.982  12.411  1.00  0.00     0.088 C 
ATOM     31  HA  PHE C   3       6.261  15.899  13.173  1.00  0.00     0.087 H 
ATOM     32  C   PHE C   3       6.462  15.617  11.043  1.00  0.00     0.221 C 
ATOM     33  O   PHE C   3       7.553  16.113  10.744  1.00  0.00    -0.278 OA
ATOM     34  CB  PHE C   3       7.453  14.089  12.718  1.00  0.00    -0.014 C 
ATOM     35  HB2 PHE C   3       7.646  13.342  11.806  1.00  0.00     0.043 H 
ATOM     36  HB3 PHE C   3       7.243  13.534  13.755  1.00  0.00     0.043 H 
ATOM     37  CG  PHE C   3       8.874  14.507  13.065  1.00  0.00    -0.056 A 
ATOM     38  CD1 PHE C   3       9.278  15.844  13.207  1.00  0.00    -0.077 A 
ATOM     39  HD1 PHE C   3       8.681  16.759  13.673  1.00  0.00     0.084 H 
ATOM     40  CE1 PHE C   3      10.645  16.145  13.380  1.00  0.00    -0.082 A 
ATOM     41  HE1 PHE C   3      11.085  17.247  13.413  1.00  0.00     0.083 H 
ATOM     42  CZ  PHE C   3      11.584  15.109  13.513  1.00  0.00    -0.083 A 
ATOM     43  HZ  PHE C   3      12.716  15.357  13.774  1.00  0.00     0.083 H 
ATOM     44  CE2 PHE C   3      11.178  13.779  13.451  1.00  0.00    -0.082 A 
ATOM     45  HE2 PHE C   3      11.998  12.931  13.590  1.00  0.00     0.083 H 
ATOM     46  CD2 PHE C   3       9.816  13.481  13.231  1.00  0.00    -0.077 A 
ATOM     47  HD2 PHE C   3       9.660  12.304  13.271  1.00  0.00     0.084 H 
ATOM     48  N   ASP C   4       5.425  15.604  10.206  1.00  0.00    -0.247 NA
ATOM     49  H   ASP C   4       4.758  16.361  10.836  1.00  0.00     0.131 HD
ATOM     50  CA  ASP C   4       5.505  16.200   8.878  1.00  0.00     0.085 C 
ATOM     51  HA  ASP C   4       6.523  15.941   8.311  1.00  0.00     0.080 H 
ATOM     52  C   ASP C   4       5.287  17.706   8.948  1.00  0.00     0.236 C 
ATOM     53  O   ASP C   4       4.255  18.212   8.494  1.00  0.00    -0.272 OA
ATOM     54  CB  ASP C   4       4.440  15.602   7.956  1.00  0.00     0.039 C 
ATOM     55  HB2 ASP C   4       4.917  14.608   7.484  1.00  0.00     0.052 H 
ATOM     56  HB3 ASP C   4       3.966  16.143   7.004  1.00  0.00     0.052 H 
ATOM     57  CG  ASP C   4       3.188  14.961   8.539  1.00  0.00     0.174 C 
ATOM     58  OD1 ASP C   4       3.045  15.058   9.769  1.00  0.00    -0.648 OA
ATOM     59  OD2 ASP C   4       2.378  14.497   7.720  1.00  0.00    -0.648 OA
ATOM     60  N   GLU C   5       6.252  18.428   9.515  1.00  0.00    -0.347 N 
ATOM     61  H   GLU C   5       7.377  18.160   9.232  1.00  0.00     0.163 HD
ATOM     62  CA  GLU C   5       6.161  19.879   9.621  1.00  0.00     0.085 C 
ATOM     63  HA  GLU C   5       5.071  20.117  10.042  1.00  0.00     0.086 H 
ATOM     64  C   GLU C   5       6.471  20.537   8.282  1.00  0.00     0.221 C 
ATOM     65  O   GLU C   5       7.499  21.206   8.135  1.00  0.00    -0.278 OA
ATOM     66  CB  GLU C   5       7.157  20.406  10.656  1.00  0.00    -0.029 C 
ATOM     67  HB2 GLU C   5       8.289  20.637  10.348  1.00  0.00     0.037 H 
ATOM     68  HB3 GLU C   5       7.294  19.603  11.532  1.00  0.00     0.037 H 
ATOM     69  CG  GLU C   5       6.604  21.586  11.466  1.00  0.00     0.018 C 
ATOM     70  HG2 GLU C   5       5.472  21.589  11.838  1.00  0.00     0.049 H 
ATOM     71  HG3 GLU C   5       6.782  22.593  10.852  1.00  0.00     0.049 H 
ATOM     72  CD  GLU C   5       7.340  21.941  12.766  1.00  0.00     0.172 C 
ATOM     73  OE1 GLU C   5       8.191  22.840  12.702  1.00  0.00    -0.648 OA
ATOM     74  OE2 GLU C   5       6.775  21.595  13.817  1.00  0.00    -0.648 OA
ATOM     75  N   VAL C   6       5.588  20.352   7.302  1.00  0.00    -0.247 NA
ATOM     76  H   VAL C   6       4.475  20.503   7.696  1.00  0.00     0.131 HD
ATOM     77  CA  VAL C   6       5.769  20.950   5.984  1.00  0.00     0.079 C 
ATOM     78  HA  VAL C   6       6.895  20.727   5.658  1.00  0.00     0.079 H 
ATOM     79  C   VAL C   6       5.254  22.383   5.966  1.00  0.00     0.236 C 
ATOM     80  O   VAL C   6       4.138  22.655   6.419  1.00  0.00    -0.272 OA
ATOM     81  CB  VAL C   6       5.006  20.154   4.923  1.00  0.00    -0.037 C 
ATOM     82  HB  VAL C   6       3.918  20.247   5.414  1.00  0.00     0.042 H 
ATOM     83  CG1 VAL C   6       4.487  20.849   3.661  1.00  0.00    -0.071 C 
ATOM     84 1HG1 VAL C   6       5.260  21.625   3.179  1.00  0.00     0.028 H 
ATOM     85 2HG1 VAL C   6       4.499  20.065   2.750  1.00  0.00     0.028 H 
ATOM     86 3HG1 VAL C   6       3.358  21.241   3.556  1.00  0.00     0.028 H 
ATOM     87  CG2 VAL C   6       4.894  18.629   4.979  1.00  0.00    -0.071 C 
ATOM     88 1HG2 VAL C   6       5.525  18.050   5.812  1.00  0.00     0.028 H 
ATOM     89 2HG2 VAL C   6       5.500  18.223   4.023  1.00  0.00     0.028 H 
ATOM     90 3HG2 VAL C   6       3.822  18.109   4.843  1.00  0.00     0.028 H 
ATOM     91  N   PHE C   7       6.066  23.302   5.445  1.00  0.00    -0.346 N 
ATOM     92  H   PHE C   7       7.152  23.000   5.067  1.00  0.00     0.163 HD
ATOM     93  CA  PHE C   7       5.677  24.704   5.355  1.00  0.00     0.093 C 
ATOM     94  HA  PHE C   7       4.949  24.939   6.271  1.00  0.00     0.088 H 
ATOM     95  C   PHE C   7       4.936  24.976   4.052  1.00  0.00     0.241 C 
ATOM     96  O   PHE C   7       4.653  24.049   3.286  1.00  0.00    -0.271 OA
ATOM     97  CB  PHE C   7       6.911  25.608   5.403  1.00  0.00    -0.014 C 
ATOM     98  HB2 PHE C   7       8.001  25.126   5.522  1.00  0.00     0.043 H 
ATOM     99  HB3 PHE C   7       6.832  26.136   6.475  1.00  0.00     0.043 H 
ATOM    100  CG  PHE C   7       7.276  26.646   4.348  1.00  0.00    -0.056 A 
ATOM    101  CD1 PHE C   7       7.454  26.285   3.006  1.00  0.00    -0.077 A 
ATOM    102  HD1 PHE C   7       7.937  25.228   2.752  1.00  0.00     0.084 H 
ATOM    103  CE1 PHE C   7       7.851  27.230   2.046  1.00  0.00    -0.082 A 
ATOM    104  HE1 PHE C   7       8.694  26.942   1.256  1.00  0.00     0.083 H 
ATOM    105  CZ  PHE C   7       8.026  28.573   2.403  1.00  0.00    -0.083 A 
ATOM    106  HZ  PHE C   7       8.383  29.410   1.639  1.00  0.00     0.083 H 
ATOM    107  CE2 PHE C   7       7.885  28.944   3.751  1.00  0.00    -0.082 A 
ATOM    108  HE2 PHE C   7       8.292  30.014   4.071  1.00  0.00     0.083 H 
ATOM    109  CD2 PHE C   7       7.468  27.997   4.695  1.00  0.00    -0.077 A 
ATOM    110  HD2 PHE C   7       7.559  28.454   5.788  1.00  0.00     0.084 H 
ATOM    111  N   TYR C   8       4.620  26.244   3.793  1.00  0.00    -0.346 N 
ATOM    112  H   TYR C   8       4.416  26.903   4.759  1.00  0.00     0.163 HD
ATOM    113  CA  TYR C   8       3.916  26.633   2.546  1.00  0.00     0.093 C 
ATOM    114  HA  TYR C   8       3.011  25.863   2.433  1.00  0.00     0.088 H 
ATOM    115  C   TYR C   8       4.909  26.665   1.367  1.00  0.00     0.241 C 
ATOM    116  O   TYR C   8       6.025  27.178   1.500  1.00  0.00    -0.271 OA
ATOM    117  CB  TYR C   8       3.288  28.020   2.694  1.00  0.00    -0.014 C 
ATOM    118  HB2 TYR C   8       4.018  28.906   2.360  1.00  0.00     0.043 H 
ATOM    119  HB3 TYR C   8       2.405  28.148   1.895  1.00  0.00     0.043 H 
ATOM    120  CG  TYR C   8       2.579  28.446   3.956  1.00  0.00    -0.056 A 
ATOM    121  CD1 TYR C   8       1.358  27.873   4.359  1.00  0.00    -0.074 A 
ATOM    122  HD1 TYR C   8       0.532  27.357   3.680  1.00  0.00     0.084 H 
ATOM    123  CE1 TYR C   8       0.843  28.168   5.630  1.00  0.00    -0.051 A 
ATOM    124  HE1 TYR C   8      -0.204  27.758   6.012  1.00  0.00     0.087 H 
ATOM    125  CZ  TYR C   8       1.549  29.047   6.485  1.00  0.00     0.065 A 
ATOM    126  OH  TYR C   8       1.124  29.255   7.761  1.00  0.00    -0.361 OA
ATOM    127  HH  TYR C   8       1.957  28.892   8.520  1.00  0.00     0.217 HD
ATOM    128  CE2 TYR C   8       2.700  29.714   6.027  1.00  0.00    -0.051 A 
ATOM    129  HE2 TYR C   8       3.077  30.668   6.627  1.00  0.00     0.087 H 
ATOM    130  CD2 TYR C   8       3.187  29.441   4.743  1.00  0.00    -0.074 A 
ATOM    131  HD2 TYR C   8       3.849  30.355   4.372  1.00  0.00     0.084 H 
ATOM    132  N   LYS C   9       4.546  26.132   0.205  1.00  0.00    -0.345 N 
ATOM    133  H   LYS C   9       3.397  25.884   0.028  1.00  0.00     0.163 HD
ATOM    134  CA  LYS C   9       5.446  26.214  -0.946  1.00  0.00     0.096 C 
ATOM    135  HA  LYS C   9       6.599  26.006  -0.732  1.00  0.00     0.089 H 
ATOM    136  C   LYS C   9       5.417  27.680  -1.532  1.00  0.00     0.196 C 
ATOM    137  O   LYS C   9       4.546  28.498  -1.140  1.00  0.00    -0.646 OA
ATOM    138  CB  LYS C   9       5.010  25.222  -2.159  1.00  0.00    -0.037 C 
ATOM    139  HB2 LYS C   9       3.848  25.006  -1.987  1.00  0.00     0.036 H 
ATOM    140  HB3 LYS C   9       5.051  25.931  -3.120  1.00  0.00     0.036 H 
ATOM    141  CG  LYS C   9       5.788  23.926  -2.415  1.00  0.00    -0.061 C 
ATOM    142  HG2 LYS C   9       6.936  24.175  -2.628  1.00  0.00     0.033 H 
ATOM    143  HG3 LYS C   9       5.775  23.158  -1.500  1.00  0.00     0.033 H 
ATOM    144  CD  LYS C   9       4.983  23.397  -3.603  1.00  0.00    -0.043 C 
ATOM    145  HD2 LYS C   9       4.705  24.115  -4.519  1.00  0.00     0.035 H 
ATOM    146  HD3 LYS C   9       3.895  23.034  -3.253  1.00  0.00     0.035 H 
ATOM    147  CE  LYS C   9       5.566  22.115  -4.152  1.00  0.00     0.080 C 
ATOM    148  HE2 LYS C   9       6.171  21.361  -3.445  1.00  0.00     0.075 H 
ATOM    149  HE3 LYS C   9       4.685  21.391  -4.525  1.00  0.00     0.075 H 
ATOM    150  NZ  LYS C   9       6.378  22.508  -5.313  1.00  0.00    -0.079 N 
ATOM    151  HZ1 LYS C   9       6.324  21.598  -6.096  1.00  0.00     0.274 HD
ATOM    152  HZ2 LYS C   9       6.275  23.444  -6.054  1.00  0.00     0.274 HD
ATOM    153  HZ3 LYS C   9       7.550  22.500  -5.058  1.00  0.00     0.274 HD
ATOM    154  OXT LYS C   9       6.241  28.029  -2.379  1.00  0.00    -0.646 OA
ENDROOT
TORSDOF 42
