REMARK  0 active torsions:
REMARK  status: ('A' for Active; 'I' for Inactive)
REMARK       I    between atoms: N_1  and  CA_5 
REMARK       I    between atoms: CA_5  and  C_7 
REMARK       I    between atoms: CA_5  and  CB_9 
REMARK       I    between atoms: C_7  and  N_14 
REMARK       I    between atoms: CB_9  and  OG_12 
REMARK       I    between atoms: N_14  and  CA_16 
REMARK       I    between atoms: CA_16  and  CB_20 
REMARK       I    between atoms: CA_16  and  C_18 
REMARK       I    between atoms: C_18  and  N_28 
REMARK       I    between atoms: CB_20  and  CG2_22 
REMARK       I    between atoms: CB_20  and  OG1_26 
REMARK       I    between atoms: N_28  and  CA_30 
REMARK       I    between atoms: CA_30  and  CB_34 
REMARK       I    between atoms: CA_30  and  C_32 
REMARK       I    between atoms: C_32  and  N_48 
REMARK       I    between atoms: CB_34  and  CG_37 
REMARK       I    between atoms: N_48  and  CA_50 
REMARK       I    between atoms: CA_50  and  C_52 
REMARK       I    between atoms: CA_50  and  CB_54 
REMARK       I    between atoms: C_52  and  N_60 
REMARK       I    between atoms: CB_54  and  CG_57 
REMARK       I    between atoms: N_60  and  CA_62 
REMARK       I    between atoms: CA_62  and  C_64 
REMARK       I    between atoms: CA_62  and  CB_66 
REMARK       I    between atoms: C_64  and  N_75 
REMARK       I    between atoms: CB_66  and  CG_69 
REMARK       I    between atoms: CG_69  and  CD_72 
REMARK       I    between atoms: N_75  and  CA_77 
REMARK       I    between atoms: CA_77  and  C_79 
REMARK       I    between atoms: CA_77  and  CB_81 
REMARK       I    between atoms: C_79  and  N_91 
REMARK       I    between atoms: CB_81  and  CG2_87 
REMARK       I    between atoms: CB_81  and  CG1_83 
REMARK       I    between atoms: N_91  and  CA_93 
REMARK       I    between atoms: CA_93  and  C_95 
REMARK       I    between atoms: CA_93  and  CB_97 
REMARK       I    between atoms: C_95  and  N_111 
REMARK       I    between atoms: CB_97  and  CG_100 
REMARK       I    between atoms: N_111  and  CA_113 
REMARK       I    between atoms: CA_113  and  C_115 
REMARK       I    between atoms: CA_113  and  CB_117 
REMARK       I    between atoms: N_132  and  C_115 
REMARK       I    between atoms: CB_117  and  CG_120 
REMARK       I    between atoms: CZ_125  and  OH_126 
REMARK       I    between atoms: N_132  and  CA_134 
REMARK       I    between atoms: CA_134  and  CB_138 
REMARK       I    between atoms: CA_134  and  C_136 
REMARK       I    between atoms: CB_138  and  CG_141 
REMARK       I    between atoms: CG_141  and  CD_144 
REMARK       I    between atoms: CD_144  and  CE_147 
REMARK       I    between atoms: CE_147  and  NZ_150 
ROOT
ATOM      1  N   SER C   1       3.569  10.245  15.174  1.00  0.00    -0.064 N 
ATOM      2  H   SER C   1       3.142   9.375  15.880  1.00  0.00     0.275 HD
ATOM      3  H2  SER C   1       3.160   9.927  14.093  1.00  0.00     0.275 HD
ATOM      4  H3  SER C   1       4.745  10.015  15.139  1.00  0.00     0.275 HD
ATOM      5  CA  SER C   1       3.063  11.615  15.582  1.00  0.00     0.195 C 
ATOM      6  HA  SER C   1       1.900  11.493  15.816  1.00  0.00     0.102 H 
ATOM      7  C   SER C   1       3.501  12.536  14.439  1.00  0.00     0.251 C 
ATOM      8  O   SER C   1       4.647  12.524  13.986  1.00  0.00    -0.271 OA
ATOM      9  CB  SER C   1       3.799  12.126  16.857  1.00  0.00     0.051 C 
ATOM     10  HB2 SER C   1       4.954  12.400  16.723  1.00  0.00     0.077 H 
ATOM     11  HB3 SER C   1       3.233  13.088  17.286  1.00  0.00     0.077 H 
ATOM     12  OG  SER C   1       3.749  11.231  17.954  1.00  0.00    -0.398 OA
ATOM     13  HG  SER C   1       4.350  11.655  18.885  1.00  0.00     0.209 HD
ATOM     14  N   THR C   2       2.645  13.462  14.123  1.00  0.00    -0.344 N 
ATOM     15  H   THR C   2       1.790  13.806  14.874  1.00  0.00     0.163 HD
ATOM     16  CA  THR C   2       2.846  14.378  12.987  1.00  0.00     0.113 C 
ATOM     17  HA  THR C   2       3.306  13.633  12.176  1.00  0.00     0.091 H 
ATOM     18  C   THR C   2       3.766  15.521  13.358  1.00  0.00     0.243 C 
ATOM     19  O   THR C   2       3.873  15.884  14.534  1.00  0.00    -0.271 OA
ATOM     20  CB  THR C   2       1.511  14.974  12.535  1.00  0.00     0.060 C 
ATOM     21  HB  THR C   2       1.614  14.691  11.373  1.00  0.00     0.086 H 
ATOM     22  CG2 THR C   2       1.342  16.469  12.239  1.00  0.00    -0.050 C 
ATOM     23 1HG2 THR C   2       1.992  17.229  11.586  1.00  0.00     0.031 H 
ATOM     24 2HG2 THR C   2       1.116  16.989  13.296  1.00  0.00     0.031 H 
ATOM     25 3HG2 THR C   2       0.304  16.606  11.648  1.00  0.00     0.031 H 
ATOM     26  OG1 THR C   2       0.348  14.157  12.516  1.00  0.00    -0.393 OA
ATOM     27  HG1 THR C   2      -0.443  14.539  13.312  1.00  0.00     0.210 HD
ATOM     28  N   PHE C   3       4.439  16.099  12.364  1.00  0.00    -0.346 N 
ATOM     29  H   PHE C   3       4.480  15.609  11.281  1.00  0.00     0.163 HD
ATOM     30  CA  PHE C   3       5.339  17.221  12.598  1.00  0.00     0.093 C 
ATOM     31  HA  PHE C   3       5.274  17.563  13.738  1.00  0.00     0.088 H 
ATOM     32  C   PHE C   3       4.912  18.434  11.782  1.00  0.00     0.241 C 
ATOM     33  O   PHE C   3       4.140  18.308  10.826  1.00  0.00    -0.271 OA
ATOM     34  CB  PHE C   3       6.770  16.854  12.200  1.00  0.00    -0.014 C 
ATOM     35  HB2 PHE C   3       7.332  16.742  13.251  1.00  0.00     0.043 H 
ATOM     36  HB3 PHE C   3       6.922  15.745  11.774  1.00  0.00     0.043 H 
ATOM     37  CG  PHE C   3       7.666  17.559  11.215  1.00  0.00    -0.056 A 
ATOM     38  CD1 PHE C   3       7.279  17.745   9.877  1.00  0.00    -0.080 A 
ATOM     39  HD1 PHE C   3       6.478  17.052   9.334  1.00  0.00     0.083 H 
ATOM     40  CE1 PHE C   3       8.195  18.248   8.952  1.00  0.00    -0.094 A 
ATOM     41  HE1 PHE C   3       7.992  18.009   7.803  1.00  0.00     0.077 H 
ATOM     42  CZ  PHE C   3       9.482  18.596   9.391  1.00  0.00    -0.012 A 
ATOM     43  HZ  PHE C   3      10.191  17.835   8.807  1.00  0.00     0.053 H 
ATOM     44  CE2 PHE C   3       9.856  18.474  10.737  1.00  0.00    -0.094 A 
ATOM     45  HE2 PHE C   3      10.986  18.385  11.101  1.00  0.00     0.077 H 
ATOM     46  CD2 PHE C   3       8.925  17.994  11.660  1.00  0.00    -0.080 A 
ATOM     47  HD2 PHE C   3       9.395  17.915  12.749  1.00  0.00     0.083 H 
ATOM     48  N   ASP C   4       5.410  19.613  12.152  1.00  0.00    -0.345 N 
ATOM     49  H   ASP C   4       6.304  19.730  12.928  1.00  0.00     0.163 HD
ATOM     50  CA  ASP C   4       5.087  20.840  11.434  1.00  0.00     0.098 C 
ATOM     51  HA  ASP C   4       4.545  20.793  10.372  1.00  0.00     0.088 H 
ATOM     52  C   ASP C   4       6.339  21.681  11.214  1.00  0.00     0.241 C 
ATOM     53  O   ASP C   4       6.469  22.772  11.778  1.00  0.00    -0.271 OA
ATOM     54  CB  ASP C   4       4.080  21.677  12.226  1.00  0.00     0.043 C 
ATOM     55  HB2 ASP C   4       4.073  22.863  12.103  1.00  0.00     0.052 H 
ATOM     56  HB3 ASP C   4       2.963  21.376  11.922  1.00  0.00     0.052 H 
ATOM     57  CG  ASP C   4       3.994  21.469  13.736  1.00  0.00     0.175 C 
ATOM     58  OD1 ASP C   4       4.838  20.749  14.310  1.00  0.00    -0.648 OA
ATOM     59  OD2 ASP C   4       3.106  22.152  14.314  1.00  0.00    -0.648 OA
ATOM     60  N   GLU C   5       7.263  21.180  10.395  1.00  0.00    -0.346 N 
ATOM     61  H   GLU C   5       6.787  20.354   9.688  1.00  0.00     0.163 HD
ATOM     62  CA  GLU C   5       8.492  21.903  10.094  1.00  0.00     0.090 C 
ATOM     63  HA  GLU C   5       8.968  22.310  11.111  1.00  0.00     0.087 H 
ATOM     64  C   GLU C   5       8.192  23.168   9.300  1.00  0.00     0.241 C 
ATOM     65  O   GLU C   5       8.491  24.278   9.751  1.00  0.00    -0.271 OA
ATOM     66  CB  GLU C   5       9.440  21.031   9.268  1.00  0.00    -0.029 C 
ATOM     67  HB2 GLU C   5       8.729  20.550   8.444  1.00  0.00     0.037 H 
ATOM     68  HB3 GLU C   5      10.190  20.823  10.172  1.00  0.00     0.037 H 
ATOM     69  CG  GLU C   5      10.476  21.396   8.188  1.00  0.00     0.018 C 
ATOM     70  HG2 GLU C   5      10.259  21.178   7.033  1.00  0.00     0.049 H 
ATOM     71  HG3 GLU C   5      11.013  22.412   8.528  1.00  0.00     0.049 H 
ATOM     72  CD  GLU C   5      11.754  20.516   8.263  1.00  0.00     0.172 C 
ATOM     73  OE1 GLU C   5      12.823  21.153   8.388  1.00  0.00    -0.648 OA
ATOM     74  OE2 GLU C   5      11.712  19.281   8.031  1.00  0.00    -0.648 OA
ATOM     75  N   VAL C   6       7.602  23.009   8.116  1.00  0.00    -0.346 N 
ATOM     76  H   VAL C   6       6.901  22.077   7.885  1.00  0.00     0.163 HD
ATOM     77  CA  VAL C   6       7.249  24.149   7.276  1.00  0.00     0.092 C 
ATOM     78  HA  VAL C   6       7.329  25.145   7.927  1.00  0.00     0.088 H 
ATOM     79  C   VAL C   6       5.868  23.960   6.663  1.00  0.00     0.241 C 
ATOM     80  O   VAL C   6       5.542  22.873   6.173  1.00  0.00    -0.271 OA
ATOM     81  CB  VAL C   6       8.260  24.312   6.140  1.00  0.00    -0.033 C 
ATOM     82  HB  VAL C   6       8.080  23.170   5.831  1.00  0.00     0.042 H 
ATOM     83  CG1 VAL C   6       7.806  24.834   4.779  1.00  0.00    -0.071 C 
ATOM     84 1HG1 VAL C   6       7.249  25.809   5.168  1.00  0.00     0.028 H 
ATOM     85 2HG1 VAL C   6       7.193  24.120   4.036  1.00  0.00     0.028 H 
ATOM     86 3HG1 VAL C   6       8.732  25.048   4.048  1.00  0.00     0.028 H 
ATOM     87  CG2 VAL C   6       9.752  23.997   6.299  1.00  0.00    -0.071 C 
ATOM     88 1HG2 VAL C   6       9.866  25.101   6.757  1.00  0.00     0.028 H 
ATOM     89 2HG2 VAL C   6      10.869  23.717   6.658  1.00  0.00     0.028 H 
ATOM     90 3HG2 VAL C   6      10.058  23.454   5.267  1.00  0.00     0.028 H 
ATOM     91  N   PHE C   7       5.054  25.014   6.688  1.00  0.00    -0.346 N 
ATOM     92  H   PHE C   7       5.210  25.843   7.527  1.00  0.00     0.163 HD
ATOM     93  CA  PHE C   7       3.715  24.962   6.115  1.00  0.00     0.088 C 
ATOM     94  HA  PHE C   7       3.322  23.837   6.104  1.00  0.00     0.087 H 
ATOM     95  C   PHE C   7       3.726  25.452   4.673  1.00  0.00     0.221 C 
ATOM     96  O   PHE C   7       2.798  25.171   3.907  1.00  0.00    -0.278 OA
ATOM     97  CB  PHE C   7       2.753  25.844   6.914  1.00  0.00    -0.014 C 
ATOM     98  HB2 PHE C   7       2.773  25.479   8.053  1.00  0.00     0.043 H 
ATOM     99  HB3 PHE C   7       2.973  27.015   6.845  1.00  0.00     0.043 H 
ATOM    100  CG  PHE C   7       1.241  25.811   6.753  1.00  0.00    -0.056 A 
ATOM    101  CD1 PHE C   7       0.578  24.830   5.990  1.00  0.00    -0.077 A 
ATOM    102  HD1 PHE C   7       0.855  23.684   5.850  1.00  0.00     0.084 H 
ATOM    103  CE1 PHE C   7      -0.806  24.884   5.818  1.00  0.00    -0.082 A 
ATOM    104  HE1 PHE C   7      -1.410  24.120   5.138  1.00  0.00     0.083 H 
ATOM    105  CZ  PHE C   7      -1.563  25.891   6.444  1.00  0.00    -0.083 A 
ATOM    106  HZ  PHE C   7      -2.722  26.013   6.217  1.00  0.00     0.083 H 
ATOM    107  CE2 PHE C   7      -0.911  26.848   7.247  1.00  0.00    -0.082 A 
ATOM    108  HE2 PHE C   7      -1.592  27.648   7.799  1.00  0.00     0.083 H 
ATOM    109  CD2 PHE C   7       0.476  26.804   7.392  1.00  0.00    -0.077 A 
ATOM    110  HD2 PHE C   7       0.822  27.604   8.200  1.00  0.00     0.084 H 
ATOM    111  N   TYR C   8       4.772  26.185   4.295  1.00  0.00    -0.247 NA
ATOM    112  H   TYR C   8       4.839  27.147   4.992  1.00  0.00     0.131 HD
ATOM    113  CA  TYR C   8       4.903  26.701   2.910  1.00  0.00     0.080 C 
ATOM    114  HA  TYR C   8       4.003  27.454   2.693  1.00  0.00     0.079 H 
ATOM    115  C   TYR C   8       4.690  25.558   1.898  1.00  0.00     0.236 C 
ATOM    116  O   TYR C   8       5.214  24.454   2.079  1.00  0.00    -0.272 OA
ATOM    117  CB  TYR C   8       6.294  27.298   2.688  1.00  0.00    -0.021 C 
ATOM    118  HB2 TYR C   8       6.197  28.139   1.843  1.00  0.00     0.042 H 
ATOM    119  HB3 TYR C   8       7.084  26.546   2.201  1.00  0.00     0.042 H 
ATOM    120  CG  TYR C   8       6.965  28.172   3.720  1.00  0.00    -0.069 A 
ATOM    121  CD1 TYR C   8       6.480  29.450   4.064  1.00  0.00    -0.077 A 
ATOM    122  HD1 TYR C   8       5.777  30.174   3.436  1.00  0.00     0.084 H 
ATOM    123  CE1 TYR C   8       7.034  30.117   5.162  1.00  0.00    -0.051 A 
ATOM    124  HE1 TYR C   8       6.633  31.193   5.468  1.00  0.00     0.087 H 
ATOM    125  CZ  TYR C   8       8.069  29.509   5.903  1.00  0.00     0.062 A 
ATOM    126  OH  TYR C   8       8.539  30.085   7.049  1.00  0.00    -0.361 OA
ATOM    127  HH  TYR C   8       9.083  31.109   6.800  1.00  0.00     0.217 HD
ATOM    128  CE2 TYR C   8       8.631  28.288   5.480  1.00  0.00    -0.062 A 
ATOM    129  HE2 TYR C   8       9.694  28.077   5.968  1.00  0.00     0.082 H 
ATOM    130  CD2 TYR C   8       8.103  27.659   4.354  1.00  0.00    -0.003 A 
ATOM    131  HD2 TYR C   8       9.025  27.616   3.599  1.00  0.00     0.054 H 
ATOM    132  N   LYS C   9       4.546  26.132   0.205  1.00  0.00    -0.345 N 
ATOM    133  H   LYS C   9       3.369  26.287   0.181  1.00  0.00     0.163 HD
ATOM    134  CA  LYS C   9       5.446  26.214  -0.946  1.00  0.00     0.096 C 
ATOM    135  HA  LYS C   9       6.582  26.066  -0.624  1.00  0.00     0.089 H 
ATOM    136  C   LYS C   9       5.417  27.680  -1.532  1.00  0.00     0.196 C 
ATOM    137  O   LYS C   9       4.546  28.498  -1.140  1.00  0.00    -0.646 OA
ATOM    138  CB  LYS C   9       5.010  25.222  -2.159  1.00  0.00    -0.037 C 
ATOM    139  HB2 LYS C   9       3.863  24.999  -1.910  1.00  0.00     0.036 H 
ATOM    140  HB3 LYS C   9       5.042  25.957  -3.098  1.00  0.00     0.036 H 
ATOM    141  CG  LYS C   9       5.784  23.918  -2.414  1.00  0.00    -0.061 C 
ATOM    142  HG2 LYS C   9       5.762  23.221  -1.445  1.00  0.00     0.033 H 
ATOM    143  HG3 LYS C   9       6.937  24.159  -2.609  1.00  0.00     0.033 H 
ATOM    144  CD  LYS C   9       4.975  23.417  -3.595  1.00  0.00    -0.043 C 
ATOM    145  HD2 LYS C   9       4.689  24.166  -4.477  1.00  0.00     0.035 H 
ATOM    146  HD3 LYS C   9       3.900  23.003  -3.263  1.00  0.00     0.035 H 
ATOM    147  CE  LYS C   9       5.565  22.123  -4.143  1.00  0.00     0.080 C 
ATOM    148  HE2 LYS C   9       4.692  21.439  -4.598  1.00  0.00     0.075 H 
ATOM    149  HE3 LYS C   9       6.163  21.405  -3.392  1.00  0.00     0.075 H 
ATOM    150  NZ  LYS C   9       6.371  22.523  -5.303  1.00  0.00    -0.079 N 
ATOM    151  HZ1 LYS C   9       6.689  21.542  -5.920  1.00  0.00     0.274 HD
ATOM    152  HZ2 LYS C   9       7.446  22.935  -4.969  1.00  0.00     0.274 HD
ATOM    153  HZ3 LYS C   9       5.984  23.248  -6.174  1.00  0.00     0.274 HD
ATOM    154  OXT LYS C   9       6.299  27.960  -2.367  1.00  0.00    -0.646 OA
ENDROOT
TORSDOF 43
