REMARK  0 active torsions:
REMARK  status: ('A' for Active; 'I' for Inactive)
REMARK       I    between atoms: N_1  and  CA_5 
REMARK       I    between atoms: CA_5  and  C_7 
REMARK       I    between atoms: CA_5  and  CB_9 
REMARK       I    between atoms: C_7  and  N_14 
REMARK       I    between atoms: CB_9  and  OG_12 
REMARK       I    between atoms: N_14  and  CA_16 
REMARK       I    between atoms: CA_16  and  CB_20 
REMARK       I    between atoms: CA_16  and  C_18 
REMARK       I    between atoms: C_18  and  N_28 
REMARK       I    between atoms: CB_20  and  OG1_26 
REMARK       I    between atoms: CB_20  and  CG2_22 
REMARK       I    between atoms: N_28  and  CA_30 
REMARK       I    between atoms: CA_30  and  CB_34 
REMARK       I    between atoms: CA_30  and  C_32 
REMARK       I    between atoms: C_32  and  N_48 
REMARK       I    between atoms: CB_34  and  CG_37 
REMARK       I    between atoms: N_48  and  CA_50 
REMARK       I    between atoms: CA_50  and  CB_54 
REMARK       I    between atoms: CA_50  and  C_52 
REMARK       I    between atoms: C_52  and  N_60 
REMARK       I    between atoms: CB_54  and  CG_57 
REMARK       I    between atoms: N_60  and  CA_62 
REMARK       I    between atoms: CA_62  and  CB_66 
REMARK       I    between atoms: CA_62  and  C_64 
REMARK       I    between atoms: C_64  and  N_75 
REMARK       I    between atoms: CB_66  and  CG_69 
REMARK       I    between atoms: CG_69  and  CD_72 
REMARK       I    between atoms: N_75  and  CA_77 
REMARK       I    between atoms: CA_77  and  CB_81 
REMARK       I    between atoms: CA_77  and  C_79 
REMARK       I    between atoms: C_79  and  N_91 
REMARK       I    between atoms: CB_81  and  CG2_87 
REMARK       I    between atoms: CB_81  and  CG1_83 
REMARK       I    between atoms: N_91  and  CA_93 
REMARK       I    between atoms: CA_93  and  C_95 
REMARK       I    between atoms: CA_93  and  CB_97 
REMARK       I    between atoms: C_95  and  N_111 
REMARK       I    between atoms: CB_97  and  CG_100 
REMARK       I    between atoms: N_111  and  CA_113 
REMARK       I    between atoms: CA_113  and  C_115 
REMARK       I    between atoms: CA_113  and  CB_117 
REMARK       I    between atoms: C_115  and  N_132 
REMARK       I    between atoms: CB_117  and  CG_120 
REMARK       I    between atoms: CZ_125  and  OH_126 
REMARK       I    between atoms: N_132  and  CA_134 
REMARK       I    between atoms: CA_134  and  CB_138 
REMARK       I    between atoms: CA_134  and  C_136 
REMARK       I    between atoms: CB_138  and  CG_141 
REMARK       I    between atoms: CG_141  and  CD_144 
REMARK       I    between atoms: CD_144  and  CE_147 
REMARK       I    between atoms: CE_147  and  NZ_150 
ROOT
ATOM      1  N   SER C   1       3.569  10.245  15.174  1.00  0.00    -0.064 N 
ATOM      2  H   SER C   1       4.512  10.063  14.464  1.00  0.00     0.275 HD
ATOM      3  H2  SER C   1       3.844   9.515  16.093  1.00  0.00     0.275 HD
ATOM      4  H3  SER C   1       2.681   9.649  14.632  1.00  0.00     0.275 HD
ATOM      5  CA  SER C   1       3.063  11.615  15.582  1.00  0.00     0.195 C 
ATOM      6  HA  SER C   1       1.914  11.470  15.865  1.00  0.00     0.102 H 
ATOM      7  C   SER C   1       3.501  12.536  14.439  1.00  0.00     0.251 C 
ATOM      8  O   SER C   1       4.647  12.524  13.986  1.00  0.00    -0.271 OA
ATOM      9  CB  SER C   1       3.799  12.126  16.857  1.00  0.00     0.051 C 
ATOM     10  HB2 SER C   1       3.265  13.110  17.283  1.00  0.00     0.077 H 
ATOM     11  HB3 SER C   1       4.963  12.356  16.694  1.00  0.00     0.077 H 
ATOM     12  OG  SER C   1       3.757  11.240  17.959  1.00  0.00    -0.398 OA
ATOM     13  HG  SER C   1       4.359  11.657  18.895  1.00  0.00     0.209 HD
ATOM     14  N   THR C   2       2.645  13.462  14.123  1.00  0.00    -0.344 N 
ATOM     15  H   THR C   2       1.746  13.755  14.847  1.00  0.00     0.163 HD
ATOM     16  CA  THR C   2       2.846  14.378  12.987  1.00  0.00     0.113 C 
ATOM     17  HA  THR C   2       3.307  13.613  12.189  1.00  0.00     0.091 H 
ATOM     18  C   THR C   2       3.766  15.521  13.358  1.00  0.00     0.243 C 
ATOM     19  O   THR C   2       3.873  15.884  14.534  1.00  0.00    -0.271 OA
ATOM     20  CB  THR C   2       1.511  14.974  12.535  1.00  0.00     0.060 C 
ATOM     21  HB  THR C   2       1.590  14.682  11.368  1.00  0.00     0.086 H 
ATOM     22  CG2 THR C   2       1.330  16.461  12.229  1.00  0.00    -0.050 C 
ATOM     23 1HG2 THR C   2       1.680  16.908  11.177  1.00  0.00     0.031 H 
ATOM     24 2HG2 THR C   2       0.168  16.732  12.121  1.00  0.00     0.031 H 
ATOM     25 3HG2 THR C   2       1.512  17.078  13.239  1.00  0.00     0.031 H 
ATOM     26  OG1 THR C   2       0.350  14.162  12.513  1.00  0.00    -0.393 OA
ATOM     27  HG1 THR C   2      -0.529  14.622  13.168  1.00  0.00     0.210 HD
ATOM     28  N   PHE C   3       4.439  16.099  12.364  1.00  0.00    -0.346 N 
ATOM     29  H   PHE C   3       4.448  15.558  11.303  1.00  0.00     0.163 HD
ATOM     30  CA  PHE C   3       5.339  17.221  12.598  1.00  0.00     0.088 C 
ATOM     31  HA  PHE C   3       5.934  16.918  13.591  1.00  0.00     0.087 H 
ATOM     32  C   PHE C   3       4.555  18.519  12.745  1.00  0.00     0.221 C 
ATOM     33  O   PHE C   3       3.349  18.557  12.481  1.00  0.00    -0.278 OA
ATOM     34  CB  PHE C   3       6.316  17.379  11.431  1.00  0.00    -0.014 C 
ATOM     35  HB2 PHE C   3       6.296  16.585  10.535  1.00  0.00     0.043 H 
ATOM     36  HB3 PHE C   3       7.361  17.064  11.931  1.00  0.00     0.043 H 
ATOM     37  CG  PHE C   3       6.529  18.605  10.572  1.00  0.00    -0.056 A 
ATOM     38  CD1 PHE C   3       5.467  19.181   9.860  1.00  0.00    -0.080 A 
ATOM     39  HD1 PHE C   3       4.620  18.449   9.447  1.00  0.00     0.083 H 
ATOM     40  CE1 PHE C   3       5.707  20.254   8.992  1.00  0.00    -0.094 A 
ATOM     41  HE1 PHE C   3       4.886  20.310   8.129  1.00  0.00     0.077 H 
ATOM     42  CZ  PHE C   3       7.006  20.773   8.881  1.00  0.00    -0.012 A 
ATOM     43  HZ  PHE C   3       7.275  20.136   7.889  1.00  0.00     0.053 H 
ATOM     44  CE2 PHE C   3       8.072  20.207   9.588  1.00  0.00    -0.094 A 
ATOM     45  HE2 PHE C   3       9.240  20.421   9.478  1.00  0.00     0.077 H 
ATOM     46  CD2 PHE C   3       7.823  19.145  10.464  1.00  0.00    -0.080 A 
ATOM     47  HD2 PHE C   3       8.820  18.714  10.951  1.00  0.00     0.083 H 
ATOM     48  N   ASP C   4       5.233  19.586  13.166  1.00  0.00    -0.247 NA
ATOM     49  H   ASP C   4       5.760  19.273  14.193  1.00  0.00     0.131 HD
ATOM     50  CA  ASP C   4       4.593  20.886  13.325  1.00  0.00     0.085 C 
ATOM     51  HA  ASP C   4       3.586  20.785  13.963  1.00  0.00     0.080 H 
ATOM     52  C   ASP C   4       4.256  21.491  11.968  1.00  0.00     0.236 C 
ATOM     53  O   ASP C   4       4.597  20.922  10.926  1.00  0.00    -0.272 OA
ATOM     54  CB  ASP C   4       5.518  21.854  14.066  1.00  0.00     0.039 C 
ATOM     55  HB2 ASP C   4       5.478  23.040  13.924  1.00  0.00     0.052 H 
ATOM     56  HB3 ASP C   4       5.359  21.740  15.248  1.00  0.00     0.052 H 
ATOM     57  CG  ASP C   4       7.020  21.613  13.919  1.00  0.00     0.174 C 
ATOM     58  OD1 ASP C   4       7.381  20.693  13.159  1.00  0.00    -0.648 OA
ATOM     59  OD2 ASP C   4       7.826  22.436  14.463  1.00  0.00    -0.648 OA
ATOM     60  N   GLU C   5       3.588  22.644  11.973  1.00  0.00    -0.346 N 
ATOM     61  H   GLU C   5       3.129  23.128  12.958  1.00  0.00     0.163 HD
ATOM     62  CA  GLU C   5       3.229  23.325  10.735  1.00  0.00     0.090 C 
ATOM     63  HA  GLU C   5       2.786  22.457  10.044  1.00  0.00     0.087 H 
ATOM     64  C   GLU C   5       4.380  24.193  10.244  1.00  0.00     0.241 C 
ATOM     65  O   GLU C   5       4.908  25.019  10.995  1.00  0.00    -0.271 OA
ATOM     66  CB  GLU C   5       2.009  24.224  10.951  1.00  0.00    -0.029 C 
ATOM     67  HB2 GLU C   5       1.082  23.697  11.506  1.00  0.00     0.037 H 
ATOM     68  HB3 GLU C   5       2.259  25.170  11.648  1.00  0.00     0.037 H 
ATOM     69  CG  GLU C   5       1.300  24.719   9.681  1.00  0.00     0.018 C 
ATOM     70  HG2 GLU C   5       1.873  25.557   9.039  1.00  0.00     0.049 H 
ATOM     71  HG3 GLU C   5       0.933  23.876   8.921  1.00  0.00     0.049 H 
ATOM     72  CD  GLU C   5      -0.031  25.429   9.934  1.00  0.00     0.172 C 
ATOM     73  OE1 GLU C   5      -0.028  26.685   9.927  1.00  0.00    -0.648 OA
ATOM     74  OE2 GLU C   5      -1.062  24.728   9.875  1.00  0.00    -0.648 OA
ATOM     75  N   VAL C   6       4.774  24.013   8.984  1.00  0.00    -0.346 N 
ATOM     76  H   VAL C   6       4.125  23.417   8.182  1.00  0.00     0.163 HD
ATOM     77  CA  VAL C   6       5.854  24.800   8.399  1.00  0.00     0.087 C 
ATOM     78  HA  VAL C   6       6.180  25.634   9.193  1.00  0.00     0.087 H 
ATOM     79  C   VAL C   6       5.337  25.647   7.243  1.00  0.00     0.221 C 
ATOM     80  O   VAL C   6       4.154  25.580   6.895  1.00  0.00    -0.278 OA
ATOM     81  CB  VAL C   6       6.959  23.885   7.867  1.00  0.00    -0.033 C 
ATOM     82  HB  VAL C   6       7.820  24.351   8.566  1.00  0.00     0.042 H 
ATOM     83  CG1 VAL C   6       7.600  24.347   6.565  1.00  0.00    -0.071 C 
ATOM     84 1HG1 VAL C   6       8.264  25.341   6.625  1.00  0.00     0.028 H 
ATOM     85 2HG1 VAL C   6       6.849  24.019   5.690  1.00  0.00     0.028 H 
ATOM     86 3HG1 VAL C   6       8.505  23.676   6.146  1.00  0.00     0.028 H 
ATOM     87  CG2 VAL C   6       7.144  22.394   8.128  1.00  0.00    -0.071 C 
ATOM     88 1HG2 VAL C   6       6.589  22.001   7.144  1.00  0.00     0.028 H 
ATOM     89 2HG2 VAL C   6       6.949  22.588   9.288  1.00  0.00     0.028 H 
ATOM     90 3HG2 VAL C   6       8.326  22.244   7.975  1.00  0.00     0.028 H 
ATOM     91  N   PHE C   7       6.222  26.444   6.645  1.00  0.00    -0.247 NA
ATOM     92  H   PHE C   7       6.744  27.145   7.460  1.00  0.00     0.131 HD
ATOM     93  CA  PHE C   7       5.852  27.287   5.515  1.00  0.00     0.080 C 
ATOM     94  HA  PHE C   7       4.942  27.944   5.929  1.00  0.00     0.079 H 
ATOM     95  C   PHE C   7       5.446  26.436   4.318  1.00  0.00     0.236 C 
ATOM     96  O   PHE C   7       5.934  25.314   4.151  1.00  0.00    -0.272 OA
ATOM     97  CB  PHE C   7       7.028  28.173   5.097  1.00  0.00    -0.018 C 
ATOM     98  HB2 PHE C   7       6.664  29.267   5.425  1.00  0.00     0.043 H 
ATOM     99  HB3 PHE C   7       8.056  28.085   5.708  1.00  0.00     0.043 H 
ATOM    100  CG  PHE C   7       7.717  28.346   3.758  1.00  0.00    -0.056 A 
ATOM    101  CD1 PHE C   7       8.344  27.266   3.102  1.00  0.00    -0.077 A 
ATOM    102  HD1 PHE C   7       8.771  26.272   3.598  1.00  0.00     0.084 H 
ATOM    103  CE1 PHE C   7       9.109  27.483   1.954  1.00  0.00    -0.082 A 
ATOM    104  HE1 PHE C   7       9.841  26.674   1.479  1.00  0.00     0.083 H 
ATOM    105  CZ  PHE C   7       9.192  28.771   1.396  1.00  0.00    -0.083 A 
ATOM    106  HZ  PHE C   7       9.877  28.985   0.448  1.00  0.00     0.083 H 
ATOM    107  CE2 PHE C   7       8.559  29.851   2.037  1.00  0.00    -0.082 A 
ATOM    108  HE2 PHE C   7       8.824  30.943   1.647  1.00  0.00     0.083 H 
ATOM    109  CD2 PHE C   7       7.781  29.626   3.174  1.00  0.00    -0.077 A 
ATOM    110  HD2 PHE C   7       7.286  30.652   3.516  1.00  0.00     0.084 H 
ATOM    111  N   TYR C   8       4.553  26.963   3.481  1.00  0.00    -0.347 N 
ATOM    112  H   TYR C   8       4.213  28.091   3.642  1.00  0.00     0.163 HD
ATOM    113  CA  TYR C   8       4.096  26.237   2.270  1.00  0.00     0.088 C 
ATOM    114  HA  TYR C   8       3.730  25.159   2.638  1.00  0.00     0.087 H 
ATOM    115  C   TYR C   8       5.270  26.060   1.286  1.00  0.00     0.221 C 
ATOM    116  O   TYR C   8       6.041  26.997   1.055  1.00  0.00    -0.278 OA
ATOM    117  CB  TYR C   8       2.981  27.014   1.567  1.00  0.00    -0.014 C 
ATOM    118  HB2 TYR C   8       3.345  27.965   0.941  1.00  0.00     0.043 H 
ATOM    119  HB3 TYR C   8       2.198  26.393   0.898  1.00  0.00     0.043 H 
ATOM    120  CG  TYR C   8       1.878  27.681   2.338  1.00  0.00    -0.056 A 
ATOM    121  CD1 TYR C   8       0.895  26.945   3.032  1.00  0.00    -0.074 A 
ATOM    122  HD1 TYR C   8       0.610  25.794   2.950  1.00  0.00     0.084 H 
ATOM    123  CE1 TYR C   8       0.005  27.621   3.874  1.00  0.00    -0.051 A 
ATOM    124  HE1 TYR C   8      -0.933  27.090   4.376  1.00  0.00     0.087 H 
ATOM    125  CZ  TYR C   8       0.095  29.027   4.005  1.00  0.00     0.065 A 
ATOM    126  OH  TYR C   8      -0.677  29.687   4.897  1.00  0.00    -0.361 OA
ATOM    127  HH  TYR C   8      -0.023  30.038   5.825  1.00  0.00     0.217 HD
ATOM    128  CE2 TYR C   8       1.000  29.766   3.208  1.00  0.00    -0.051 A 
ATOM    129  HE2 TYR C   8       0.919  30.953   3.225  1.00  0.00     0.087 H 
ATOM    130  CD2 TYR C   8       1.870  29.083   2.356  1.00  0.00    -0.074 A 
ATOM    131  HD2 TYR C   8       2.204  29.873   1.531  1.00  0.00     0.084 H 
ATOM    132  N   LYS C   9       4.546  26.132   0.205  1.00  0.00    -0.246 NA
ATOM    133  H   LYS C   9       3.903  25.131   0.068  1.00  0.00     0.131 HD
ATOM    134  CA  LYS C   9       5.446  26.214  -0.946  1.00  0.00     0.083 C 
ATOM    135  HA  LYS C   9       6.617  25.998  -0.854  1.00  0.00     0.081 H 
ATOM    136  C   LYS C   9       5.417  27.680  -1.532  1.00  0.00     0.191 C 
ATOM    137  O   LYS C   9       4.546  28.498  -1.140  1.00  0.00    -0.647 OA
ATOM    138  CB  LYS C   9       5.010  25.222  -2.159  1.00  0.00    -0.041 C 
ATOM    139  HB2 LYS C   9       5.272  25.908  -3.104  1.00  0.00     0.036 H 
ATOM    140  HB3 LYS C   9       3.812  25.204  -2.157  1.00  0.00     0.036 H 
ATOM    141  CG  LYS C   9       5.770  23.927  -2.409  1.00  0.00    -0.062 C 
ATOM    142  HG2 LYS C   9       5.714  23.201  -1.459  1.00  0.00     0.033 H 
ATOM    143  HG3 LYS C   9       6.944  24.093  -2.594  1.00  0.00     0.033 H 
ATOM    144  CD  LYS C   9       4.965  23.424  -3.594  1.00  0.00    -0.043 C 
ATOM    145  HD2 LYS C   9       3.921  22.998  -3.180  1.00  0.00     0.035 H 
ATOM    146  HD3 LYS C   9       4.601  24.116  -4.501  1.00  0.00     0.035 H 
ATOM    147  CE  LYS C   9       5.565  22.134  -4.136  1.00  0.00     0.080 C 
ATOM    148  HE2 LYS C   9       6.179  21.413  -3.396  1.00  0.00     0.075 H 
ATOM    149  HE3 LYS C   9       4.717  21.379  -4.522  1.00  0.00     0.075 H 
ATOM    150  NZ  LYS C   9       6.365  22.532  -5.294  1.00  0.00    -0.079 N 
ATOM    151  HZ1 LYS C   9       5.879  23.110  -6.224  1.00  0.00     0.274 HD
ATOM    152  HZ2 LYS C   9       6.739  21.516  -5.812  1.00  0.00     0.274 HD
ATOM    153  HZ3 LYS C   9       7.408  23.090  -5.104  1.00  0.00     0.274 HD
ATOM    154  OXT LYS C   9       6.309  27.948  -2.412  1.00  0.00    -0.647 OA
ENDROOT
TORSDOF 43
