REMARK  0 active torsions:
REMARK  status: ('A' for Active; 'I' for Inactive)
REMARK       I    between atoms: N_1  and  CA_5 
REMARK       I    between atoms: CA_5  and  C_7 
REMARK       I    between atoms: CA_5  and  CB_9 
REMARK       I    between atoms: C_7  and  N_14 
REMARK       I    between atoms: CB_9  and  OG_12 
REMARK       I    between atoms: N_14  and  CA_16 
REMARK       I    between atoms: CA_16  and  CB_20 
REMARK       I    between atoms: CA_16  and  C_18 
REMARK       I    between atoms: C_18  and  N_28 
REMARK       I    between atoms: CB_20  and  CG2_22 
REMARK       I    between atoms: CB_20  and  OG1_26 
REMARK       I    between atoms: N_28  and  CA_30 
REMARK       I    between atoms: CA_30  and  CB_34 
REMARK       I    between atoms: CA_30  and  C_32 
REMARK       I    between atoms: C_32  and  N_48 
REMARK       I    between atoms: CB_34  and  CG_37 
REMARK       I    between atoms: N_48  and  CA_50 
REMARK       I    between atoms: CA_50  and  C_52 
REMARK       I    between atoms: CA_50  and  CB_54 
REMARK       I    between atoms: C_52  and  N_60 
REMARK       I    between atoms: CB_54  and  CG_57 
REMARK       I    between atoms: N_60  and  CA_62 
REMARK       I    between atoms: CA_62  and  C_64 
REMARK       I    between atoms: CA_62  and  CB_66 
REMARK       I    between atoms: C_64  and  N_75 
REMARK       I    between atoms: CB_66  and  CG_69 
REMARK       I    between atoms: CG_69  and  CD_72 
REMARK       I    between atoms: N_75  and  CA_77 
REMARK       I    between atoms: CA_77  and  C_79 
REMARK       I    between atoms: CA_77  and  CB_81 
REMARK       I    between atoms: C_79  and  N_91 
REMARK       I    between atoms: CB_81  and  CG1_83 
REMARK       I    between atoms: CB_81  and  CG2_87 
REMARK       I    between atoms: N_91  and  CA_93 
REMARK       I    between atoms: CA_93  and  C_95 
REMARK       I    between atoms: CA_93  and  CB_97 
REMARK       I    between atoms: C_95  and  N_111 
REMARK       I    between atoms: CB_97  and  CG_100 
REMARK       I    between atoms: N_111  and  CA_113 
REMARK       I    between atoms: CA_113  and  CB_117 
REMARK       I    between atoms: CB_117  and  CG_120 
REMARK       I    between atoms: CZ_125  and  OH_126 
REMARK       I    between atoms: N_132  and  CA_134 
REMARK       I    between atoms: CA_134  and  CB_138 
REMARK       I    between atoms: CA_134  and  C_136 
REMARK       I    between atoms: CB_138  and  CG_141 
REMARK       I    between atoms: CG_141  and  CD_144 
REMARK       I    between atoms: CD_144  and  CE_147 
REMARK       I    between atoms: CE_147  and  NZ_150 
ROOT
ATOM      1  N   SER C   1       3.569  10.245  15.174  1.00  0.00    -0.064 N 
ATOM      2  H   SER C   1       3.222   9.979  14.058  1.00  0.00     0.275 HD
ATOM      3  H2  SER C   1       3.076   9.372  15.833  1.00  0.00     0.275 HD
ATOM      4  H3  SER C   1       4.739   9.993  15.177  1.00  0.00     0.275 HD
ATOM      5  CA  SER C   1       3.063  11.615  15.582  1.00  0.00     0.195 C 
ATOM      6  HA  SER C   1       1.904  11.491  15.831  1.00  0.00     0.102 H 
ATOM      7  C   SER C   1       3.501  12.536  14.439  1.00  0.00     0.251 C 
ATOM      8  O   SER C   1       4.647  12.524  13.986  1.00  0.00    -0.271 OA
ATOM      9  CB  SER C   1       3.799  12.126  16.857  1.00  0.00     0.051 C 
ATOM     10  HB2 SER C   1       3.605  13.269  17.156  1.00  0.00     0.077 H 
ATOM     11  HB3 SER C   1       4.995  12.121  16.850  1.00  0.00     0.077 H 
ATOM     12  OG  SER C   1       3.449  11.293  17.950  1.00  0.00    -0.398 OA
ATOM     13  HG  SER C   1       3.077  11.969  18.850  1.00  0.00     0.209 HD
ATOM     14  N   THR C   2       2.645  13.462  14.123  1.00  0.00    -0.344 N 
ATOM     15  H   THR C   2       1.746  13.611  14.886  1.00  0.00     0.163 HD
ATOM     16  CA  THR C   2       2.846  14.378  12.987  1.00  0.00     0.113 C 
ATOM     17  HA  THR C   2       3.220  13.659  12.112  1.00  0.00     0.091 H 
ATOM     18  C   THR C   2       3.766  15.521  13.358  1.00  0.00     0.243 C 
ATOM     19  O   THR C   2       3.873  15.884  14.534  1.00  0.00    -0.271 OA
ATOM     20  CB  THR C   2       1.511  14.974  12.535  1.00  0.00     0.060 C 
ATOM     21  HB  THR C   2       0.914  14.187  11.860  1.00  0.00     0.086 H 
ATOM     22  CG2 THR C   2       1.593  16.289  11.781  1.00  0.00    -0.050 C 
ATOM     23 1HG2 THR C   2       1.643  17.139  12.608  1.00  0.00     0.031 H 
ATOM     24 2HG2 THR C   2       2.121  16.089  10.722  1.00  0.00     0.031 H 
ATOM     25 3HG2 THR C   2       0.523  16.478  11.269  1.00  0.00     0.031 H 
ATOM     26  OG1 THR C   2       0.590  15.019  13.609  1.00  0.00    -0.393 OA
ATOM     27  HG1 THR C   2       0.740  15.992  14.267  1.00  0.00     0.210 HD
ATOM     28  N   PHE C   3       4.439  16.099  12.364  1.00  0.00    -0.346 N 
ATOM     29  H   PHE C   3       4.706  15.413  11.429  1.00  0.00     0.163 HD
ATOM     30  CA  PHE C   3       5.339  17.221  12.598  1.00  0.00     0.093 C 
ATOM     31  HA  PHE C   3       5.944  16.880  13.567  1.00  0.00     0.088 H 
ATOM     32  C   PHE C   3       4.551  18.502  12.840  1.00  0.00     0.241 C 
ATOM     33  O   PHE C   3       5.028  19.412  13.527  1.00  0.00    -0.271 OA
ATOM     34  CB  PHE C   3       6.252  17.440  11.390  1.00  0.00    -0.014 C 
ATOM     35  HB2 PHE C   3       5.816  17.589  10.287  1.00  0.00     0.043 H 
ATOM     36  HB3 PHE C   3       6.871  16.424  11.255  1.00  0.00     0.043 H 
ATOM     37  CG  PHE C   3       7.466  18.283  11.684  1.00  0.00    -0.056 A 
ATOM     38  CD1 PHE C   3       7.785  18.757  12.961  1.00  0.00    -0.077 A 
ATOM     39  HD1 PHE C   3       8.088  18.062  13.877  1.00  0.00     0.084 H 
ATOM     40  CE1 PHE C   3       8.633  19.871  13.113  1.00  0.00    -0.082 A 
ATOM     41  HE1 PHE C   3       8.700  20.481  14.131  1.00  0.00     0.083 H 
ATOM     42  CZ  PHE C   3       9.454  20.324  12.090  1.00  0.00    -0.083 A 
ATOM     43  HZ  PHE C   3      10.418  20.996  12.266  1.00  0.00     0.083 H 
ATOM     44  CE2 PHE C   3       9.068  19.830  10.835  1.00  0.00    -0.082 A 
ATOM     45  HE2 PHE C   3       9.734  20.273   9.957  1.00  0.00     0.083 H 
ATOM     46  CD2 PHE C   3       8.343  18.647  10.665  1.00  0.00    -0.077 A 
ATOM     47  HD2 PHE C   3       8.841  17.882   9.904  1.00  0.00     0.084 H 
ATOM     48  N   ASP C   4       3.345  18.582  12.280  1.00  0.00    -0.346 N 
ATOM     49  H   ASP C   4       3.222  18.197  11.161  1.00  0.00     0.163 HD
ATOM     50  CA  ASP C   4       2.494  19.751  12.458  1.00  0.00     0.093 C 
ATOM     51  HA  ASP C   4       1.350  19.696  12.120  1.00  0.00     0.087 H 
ATOM     52  C   ASP C   4       2.938  20.886  11.544  1.00  0.00     0.221 C 
ATOM     53  O   ASP C   4       2.464  22.019  11.675  1.00  0.00    -0.278 OA
ATOM     54  CB  ASP C   4       2.557  20.247  13.904  1.00  0.00     0.042 C 
ATOM     55  HB2 ASP C   4       2.624  21.439  13.971  1.00  0.00     0.052 H 
ATOM     56  HB3 ASP C   4       1.523  19.925  14.415  1.00  0.00     0.052 H 
ATOM     57  CG  ASP C   4       3.428  19.980  15.130  1.00  0.00     0.175 C 
ATOM     58  OD1 ASP C   4       4.433  19.234  15.038  1.00  0.00    -0.648 OA
ATOM     59  OD2 ASP C   4       3.099  20.559  16.172  1.00  0.00    -0.648 OA
ATOM     60  N   GLU C   5       3.847  20.590  10.616  1.00  0.00    -0.248 NA
ATOM     61  H   GLU C   5       4.825  20.036  10.985  1.00  0.00     0.131 HD
ATOM     62  CA  GLU C   5       4.333  21.591   9.674  1.00  0.00     0.076 C 
ATOM     63  HA  GLU C   5       4.835  22.463  10.318  1.00  0.00     0.079 H 
ATOM     64  C   GLU C   5       3.222  22.020   8.724  1.00  0.00     0.236 C 
ATOM     65  O   GLU C   5       2.722  21.211   7.936  1.00  0.00    -0.272 OA
ATOM     66  CB  GLU C   5       5.486  21.028   8.840  1.00  0.00    -0.033 C 
ATOM     67  HB2 GLU C   5       6.475  20.995   9.506  1.00  0.00     0.036 H 
ATOM     68  HB3 GLU C   5       5.184  19.923   8.506  1.00  0.00     0.036 H 
ATOM     69  CG  GLU C   5       5.934  21.750   7.575  1.00  0.00     0.018 C 
ATOM     70  HG2 GLU C   5       5.309  21.522   6.587  1.00  0.00     0.049 H 
ATOM     71  HG3 GLU C   5       6.181  22.889   7.825  1.00  0.00     0.049 H 
ATOM     72  CD  GLU C   5       7.353  21.299   7.243  1.00  0.00     0.172 C 
ATOM     73  OE1 GLU C   5       7.386  20.314   6.490  1.00  0.00    -0.648 OA
ATOM     74  OE2 GLU C   5       8.346  21.925   7.680  1.00  0.00    -0.648 OA
ATOM     75  N   VAL C   6       2.832  23.292   8.791  1.00  0.00    -0.346 N 
ATOM     76  H   VAL C   6       3.244  24.069   9.592  1.00  0.00     0.163 HD
ATOM     77  CA  VAL C   6       1.791  23.821   7.917  1.00  0.00     0.092 C 
ATOM     78  HA  VAL C   6       1.380  23.016   7.142  1.00  0.00     0.088 H 
ATOM     79  C   VAL C   6       2.356  24.890   6.991  1.00  0.00     0.241 C 
ATOM     80  O   VAL C   6       1.688  25.888   6.703  1.00  0.00    -0.271 OA
ATOM     81  CB  VAL C   6       0.664  24.448   8.742  1.00  0.00    -0.033 C 
ATOM     82  HB  VAL C   6       0.861  24.350   9.915  1.00  0.00     0.042 H 
ATOM     83  CG1 VAL C   6       0.453  25.951   8.549  1.00  0.00    -0.071 C 
ATOM     84 1HG1 VAL C   6       1.347  26.712   8.800  1.00  0.00     0.028 H 
ATOM     85 2HG1 VAL C   6      -0.240  26.377   7.666  1.00  0.00     0.028 H 
ATOM     86 3HG1 VAL C   6      -0.237  26.349   9.458  1.00  0.00     0.028 H 
ATOM     87  CG2 VAL C   6      -0.671  23.711   8.576  1.00  0.00    -0.071 C 
ATOM     88 1HG2 VAL C   6      -0.626  22.544   8.854  1.00  0.00     0.028 H 
ATOM     89 2HG2 VAL C   6      -1.169  23.740   7.487  1.00  0.00     0.028 H 
ATOM     90 3HG2 VAL C   6      -1.565  24.066   9.293  1.00  0.00     0.028 H 
ATOM     91  N   PHE C   7       3.586  24.684   6.523  1.00  0.00    -0.346 N 
ATOM     92  H   PHE C   7       4.379  24.078   7.156  1.00  0.00     0.163 HD
ATOM     93  CA  PHE C   7       4.227  25.626   5.613  1.00  0.00     0.093 C 
ATOM     94  HA  PHE C   7       3.780  26.708   5.845  1.00  0.00     0.088 H 
ATOM     95  C   PHE C   7       4.082  25.164   4.169  1.00  0.00     0.242 C 
ATOM     96  O   PHE C   7       3.795  23.990   3.911  1.00  0.00    -0.271 OA
ATOM     97  CB  PHE C   7       5.719  25.749   5.930  1.00  0.00    -0.017 C 
ATOM     98  HB2 PHE C   7       6.013  26.910   5.890  1.00  0.00     0.043 H 
ATOM     99  HB3 PHE C   7       6.230  25.518   6.985  1.00  0.00     0.043 H 
ATOM    100  CG  PHE C   7       6.623  25.119   4.859  1.00  0.00    -0.069 A 
ATOM    101  CD1 PHE C   7       6.149  24.320   3.819  1.00  0.00    -0.005 A 
ATOM    102  HD1 PHE C   7       5.511  23.325   4.058  1.00  0.00     0.054 H 
ATOM    103  CE1 PHE C   7       6.914  23.324   3.187  1.00  0.00    -0.094 A 
ATOM    104  HE1 PHE C   7       6.800  22.192   2.830  1.00  0.00     0.077 H 
ATOM    105  CZ  PHE C   7       8.291  23.526   3.121  1.00  0.00    -0.086 A 
ATOM    106  HZ  PHE C   7       9.047  22.920   2.435  1.00  0.00     0.083 H 
ATOM    107  CE2 PHE C   7       8.840  24.563   3.894  1.00  0.00    -0.083 A 
ATOM    108  HE2 PHE C   7      10.009  24.760   3.813  1.00  0.00     0.083 H 
ATOM    109  CD2 PHE C   7       8.024  25.275   4.794  1.00  0.00    -0.080 A 
ATOM    110  HD2 PHE C   7       8.650  26.087   5.395  1.00  0.00     0.083 H 
ATOM    111  N   TYR C   8       4.279  26.080   3.222  1.00  0.00    -0.326 N 
ATOM    112  H   TYR C   8       4.459  27.232   3.461  1.00  0.00     0.165 HD
ATOM    113  CA  TYR C   8       4.185  25.743   1.780  1.00  0.00     0.223 A 
ATOM    114  HA  TYR C   8       4.461  24.575   1.762  1.00  0.00     0.129 H 
ATOM    115  C   TYR C   8       5.162  26.617   0.968  1.00  0.00     0.366 A 
ATOM    116  O   TYR C   8       5.264  27.826   1.200  1.00  0.00    -0.261 OA
ATOM    117  CB  TYR C   8       2.766  25.987   1.262  1.00  0.00     0.005 C 
ATOM    118  HB2 TYR C   8       2.437  27.088   1.617  1.00  0.00     0.045 H 
ATOM    119  HB3 TYR C   8       2.179  26.027   0.218  1.00  0.00     0.045 H 
ATOM    120  CG  TYR C   8       1.687  25.142   1.900  1.00  0.00    -0.067 A 
ATOM    121  CD1 TYR C   8       0.757  24.399   1.189  1.00  0.00    -0.077 A 
ATOM    122  HD1 TYR C   8       0.794  23.346   0.641  1.00  0.00     0.084 H 
ATOM    123  CE1 TYR C   8      -0.495  24.961   1.484  1.00  0.00    -0.051 A 
ATOM    124  HE1 TYR C   8      -1.387  24.874   0.705  1.00  0.00     0.087 H 
ATOM    125  CZ  TYR C   8      -0.660  25.732   2.670  1.00  0.00     0.062 A 
ATOM    126  OH  TYR C   8      -1.827  26.378   2.922  1.00  0.00    -0.361 OA
ATOM    127  HH  TYR C   8      -1.643  27.548   2.901  1.00  0.00     0.217 HD
ATOM    128  CE2 TYR C   8       0.361  25.856   3.632  1.00  0.00    -0.062 A 
ATOM    129  HE2 TYR C   8       0.373  26.754   4.407  1.00  0.00     0.082 H 
ATOM    130  CD2 TYR C   8       1.497  25.142   3.281  1.00  0.00    -0.003 A 
ATOM    131  HD2 TYR C   8       1.374  24.070   3.774  1.00  0.00     0.054 H 
ATOM    132  N   LYS C   9       4.546  26.132   0.205  1.00  0.00     0.035 N 
ATOM    133  H   LYS C   9       3.978  25.189  -0.243  1.00  0.00     0.294 HD
ATOM    134  CA  LYS C   9       5.446  26.214  -0.946  1.00  0.00     0.197 C 
ATOM    135  HA  LYS C   9       6.571  26.027  -0.592  1.00  0.00     0.103 H 
ATOM    136  C   LYS C   9       5.417  27.680  -1.532  1.00  0.00     0.205 C 
ATOM    137  O   LYS C   9       4.546  28.498  -1.140  1.00  0.00    -0.646 OA
ATOM    138  CB  LYS C   9       5.010  25.222  -2.159  1.00  0.00    -0.028 C 
ATOM    139  HB2 LYS C   9       4.542  25.927  -3.011  1.00  0.00     0.036 H 
ATOM    140  HB3 LYS C   9       4.093  24.454  -2.121  1.00  0.00     0.036 H 
ATOM    141  CG  LYS C   9       6.291  24.490  -2.536  1.00  0.00    -0.061 C 
ATOM    142  HG2 LYS C   9       6.897  23.918  -1.651  1.00  0.00     0.033 H 
ATOM    143  HG3 LYS C   9       6.893  25.298  -3.206  1.00  0.00     0.033 H 
ATOM    144  CD  LYS C   9       5.942  23.502  -3.639  1.00  0.00    -0.043 C 
ATOM    145  HD2 LYS C   9       5.355  24.023  -4.540  1.00  0.00     0.035 H 
ATOM    146  HD3 LYS C   9       5.161  22.702  -3.213  1.00  0.00     0.035 H 
ATOM    147  CE  LYS C   9       7.197  22.712  -3.976  1.00  0.00     0.080 C 
ATOM    148  HE2 LYS C   9       8.172  22.469  -3.310  1.00  0.00     0.075 H 
ATOM    149  HE3 LYS C   9       6.760  21.626  -4.216  1.00  0.00     0.075 H 
ATOM    150  NZ  LYS C   9       7.627  23.203  -5.291  1.00  0.00    -0.079 N 
ATOM    151  HZ1 LYS C   9       6.898  23.262  -6.241  1.00  0.00     0.274 HD
ATOM    152  HZ2 LYS C   9       8.205  24.252  -5.261  1.00  0.00     0.274 HD
ATOM    153  HZ3 LYS C   9       8.463  22.449  -5.712  1.00  0.00     0.274 HD
ATOM    154  OXT LYS C   9       6.541  28.085  -1.910  1.00  0.00    -0.646 OA
ENDROOT
TORSDOF 42
