REMARK  0 active torsions:
REMARK  status: ('A' for Active; 'I' for Inactive)
REMARK       I    between atoms: N_1  and  CA_5 
REMARK       I    between atoms: CA_5  and  C_7 
REMARK       I    between atoms: CA_5  and  CB_9 
REMARK       I    between atoms: C_7  and  N_14 
REMARK       I    between atoms: CB_9  and  OG_12 
REMARK       I    between atoms: N_14  and  CA_16 
REMARK       I    between atoms: CA_16  and  CB_20 
REMARK       I    between atoms: CA_16  and  C_18 
REMARK       I    between atoms: C_18  and  N_28 
REMARK       I    between atoms: CB_20  and  CG2_22 
REMARK       I    between atoms: CB_20  and  OG1_26 
REMARK       I    between atoms: N_28  and  CA_30 
REMARK       I    between atoms: CA_50  and  CB_54 
REMARK       I    between atoms: CB_54  and  CG_57 
REMARK       I    between atoms: CA_62  and  C_64 
REMARK       I    between atoms: C_64  and  N_75 
REMARK       I    between atoms: N_75  and  CA_77 
REMARK       I    between atoms: CA_77  and  CB_81 
REMARK       I    between atoms: CA_77  and  C_79 
REMARK       I    between atoms: C_79  and  N_91 
REMARK       I    between atoms: CB_81  and  CG1_83 
REMARK       I    between atoms: CB_81  and  CG2_87 
REMARK       I    between atoms: N_91  and  CA_93 
REMARK       I    between atoms: CA_93  and  C_95 
REMARK       I    between atoms: CA_93  and  CB_97 
REMARK       I    between atoms: C_95  and  N_111 
REMARK       I    between atoms: CB_97  and  CG_100 
REMARK       I    between atoms: N_111  and  CA_113 
REMARK       I    between atoms: CA_113  and  C_115 
REMARK       I    between atoms: CA_113  and  CB_117 
REMARK       I    between atoms: C_115  and  N_132 
REMARK       I    between atoms: CB_117  and  CG_120 
REMARK       I    between atoms: CZ_125  and  OH_126 
REMARK       I    between atoms: N_132  and  CA_134 
REMARK       I    between atoms: CA_134  and  CB_138 
REMARK       I    between atoms: CA_134  and  C_136 
REMARK       I    between atoms: CB_138  and  CG_141 
REMARK       I    between atoms: CG_141  and  CD_144 
REMARK       I    between atoms: CD_144  and  CE_147 
REMARK       I    between atoms: CE_147  and  NZ_150 
ROOT
ATOM      1  N   SER C   1       3.569  10.245  15.174  1.00  0.00    -0.064 N 
ATOM      2  H   SER C   1       4.613   9.840  15.599  1.00  0.00     0.275 HD
ATOM      3  H2  SER C   1       3.651  10.032  13.998  1.00  0.00     0.275 HD
ATOM      4  H3  SER C   1       2.784   9.406  15.518  1.00  0.00     0.275 HD
ATOM      5  CA  SER C   1       3.063  11.615  15.582  1.00  0.00     0.195 C 
ATOM      6  HA  SER C   1       1.897  11.514  15.810  1.00  0.00     0.102 H 
ATOM      7  C   SER C   1       3.501  12.536  14.439  1.00  0.00     0.251 C 
ATOM      8  O   SER C   1       4.647  12.524  13.986  1.00  0.00    -0.271 OA
ATOM      9  CB  SER C   1       3.799  12.126  16.857  1.00  0.00     0.051 C 
ATOM     10  HB2 SER C   1       3.264  13.116  17.260  1.00  0.00     0.077 H 
ATOM     11  HB3 SER C   1       4.967  12.354  16.745  1.00  0.00     0.077 H 
ATOM     12  OG  SER C   1       3.738  11.222  17.945  1.00  0.00    -0.398 OA
ATOM     13  HG  SER C   1       4.049  11.774  18.947  1.00  0.00     0.209 HD
ATOM     14  N   THR C   2       2.645  13.462  14.123  1.00  0.00    -0.344 N 
ATOM     15  H   THR C   2       1.747  13.779  14.835  1.00  0.00     0.163 HD
ATOM     16  CA  THR C   2       2.846  14.378  12.987  1.00  0.00     0.113 C 
ATOM     17  HA  THR C   2       3.310  13.634  12.175  1.00  0.00     0.091 H 
ATOM     18  C   THR C   2       3.766  15.521  13.358  1.00  0.00     0.243 C 
ATOM     19  O   THR C   2       3.873  15.884  14.534  1.00  0.00    -0.271 OA
ATOM     20  CB  THR C   2       1.511  14.974  12.535  1.00  0.00     0.060 C 
ATOM     21  HB  THR C   2       1.623  14.678  11.377  1.00  0.00     0.086 H 
ATOM     22  CG2 THR C   2       1.347  16.468  12.239  1.00  0.00    -0.050 C 
ATOM     23 1HG2 THR C   2       0.728  16.857  13.191  1.00  0.00     0.031 H 
ATOM     24 2HG2 THR C   2       2.105  17.378  12.086  1.00  0.00     0.031 H 
ATOM     25 3HG2 THR C   2       0.631  16.657  11.292  1.00  0.00     0.031 H 
ATOM     26  OG1 THR C   2       0.353  14.152  12.517  1.00  0.00    -0.393 OA
ATOM     27  HG1 THR C   2      -0.565  14.697  13.031  1.00  0.00     0.210 HD
ATOM     28  N   PHE C   3       4.439  16.099  12.364  1.00  0.00    -0.346 N 
ATOM     29  H   PHE C   3       4.449  15.646  11.264  1.00  0.00     0.163 HD
ATOM     30  CA  PHE C   3       5.339  17.221  12.598  1.00  0.00     0.093 C 
ATOM     31  HA  PHE C   3       5.199  17.565  13.731  1.00  0.00     0.088 H 
ATOM     32  C   PHE C   3       5.049  18.357  11.626  1.00  0.00     0.241 C 
ATOM     33  O   PHE C   3       5.094  18.166  10.406  1.00  0.00    -0.271 OA
ATOM     34  CB  PHE C   3       6.795  16.790  12.413  1.00  0.00    -0.014 C 
ATOM     35  HB2 PHE C   3       6.862  15.666  12.002  1.00  0.00     0.043 H 
ATOM     36  HB3 PHE C   3       7.143  16.615  13.546  1.00  0.00     0.043 H 
ATOM     37  CG  PHE C   3       7.988  17.278  11.646  1.00  0.00    -0.057 A 
ATOM     38  CD1 PHE C   3       8.001  17.324  10.243  1.00  0.00    -0.077 A 
ATOM     39  HD1 PHE C   3       7.216  16.808   9.514  1.00  0.00     0.084 H 
ATOM     40  CE1 PHE C   3       9.224  17.513   9.573  1.00  0.00    -0.083 A 
ATOM     41  HE1 PHE C   3       9.390  16.876   8.581  1.00  0.00     0.083 H 
ATOM     42  CZ  PHE C   3      10.371  17.772  10.332  1.00  0.00    -0.072 A 
ATOM     43  HZ  PHE C   3      11.360  17.382   9.792  1.00  0.00     0.081 H 
ATOM     44  CE2 PHE C   3      10.337  17.726  11.728  1.00  0.00     0.081 A 
ATOM     45  HE2 PHE C   3      10.926  16.752  12.098  1.00  0.00     0.097 H 
ATOM     46  CD2 PHE C   3       9.108  17.625  12.406  1.00  0.00    -0.065 A 
ATOM     47  HD2 PHE C   3       9.252  17.663  13.587  1.00  0.00     0.082 H 
ATOM     48  N   ASP C   4       4.751  19.542  12.157  1.00  0.00    -0.345 N 
ATOM     49  H   ASP C   4       5.242  19.712  13.225  1.00  0.00     0.163 HD
ATOM     50  CA  ASP C   4       4.475  20.706  11.324  1.00  0.00     0.098 C 
ATOM     51  HA  ASP C   4       4.051  20.495  10.229  1.00  0.00     0.088 H 
ATOM     52  C   ASP C   4       5.723  21.566  11.168  1.00  0.00     0.241 C 
ATOM     53  O   ASP C   4       5.630  22.792  11.051  1.00  0.00    -0.271 OA
ATOM     54  CB  ASP C   4       3.376  21.566  11.951  1.00  0.00     0.043 C 
ATOM     55  HB2 ASP C   4       3.276  22.717  11.634  1.00  0.00     0.052 H 
ATOM     56  HB3 ASP C   4       2.318  21.098  11.647  1.00  0.00     0.052 H 
ATOM     57  CG  ASP C   4       3.206  21.623  13.468  1.00  0.00     0.175 C 
ATOM     58  OD1 ASP C   4       4.051  21.004  14.144  1.00  0.00    -0.648 OA
ATOM     59  OD2 ASP C   4       2.283  22.352  13.908  1.00  0.00    -0.648 OA
ATOM     60  N   GLU C   5       6.894  20.931  11.165  1.00  0.00    -0.346 N 
ATOM     61  H   GLU C   5       7.008  19.817  11.537  1.00  0.00     0.163 HD
ATOM     62  CA  GLU C   5       8.153  21.647  11.003  1.00  0.00     0.090 C 
ATOM     63  HA  GLU C   5       8.117  22.608  11.714  1.00  0.00     0.087 H 
ATOM     64  C   GLU C   5       8.265  22.231   9.601  1.00  0.00     0.241 C 
ATOM     65  O   GLU C   5       9.084  23.123   9.356  1.00  0.00    -0.271 OA
ATOM     66  CB  GLU C   5       9.339  20.706  11.227  1.00  0.00    -0.029 C 
ATOM     67  HB2 GLU C   5       9.862  21.471  12.004  1.00  0.00     0.037 H 
ATOM     68  HB3 GLU C   5       9.042  19.914  12.074  1.00  0.00     0.037 H 
ATOM     69  CG  GLU C   5      10.681  20.334  10.570  1.00  0.00     0.018 C 
ATOM     70  HG2 GLU C   5      11.218  21.378  10.317  1.00  0.00     0.048 H 
ATOM     71  HG3 GLU C   5      10.880  19.883   9.483  1.00  0.00     0.048 H 
ATOM     72  CD  GLU C   5      11.684  19.783  11.621  1.00  0.00     0.259 C 
ATOM     73  OE1 GLU C   5      12.753  20.412  11.722  1.00  0.00    -0.265 OA
ATOM     74  OE2 GLU C   5      11.534  18.684  12.229  1.00  0.00    -0.308 OA
ATOM     75  N   VAL C   6       7.445  21.735   8.676  1.00  0.00    -0.346 N 
ATOM     76  H   VAL C   6       6.564  20.954   8.817  1.00  0.00     0.163 HD
ATOM     77  CA  VAL C   6       7.448  22.230   7.304  1.00  0.00     0.092 C 
ATOM     78  HA  VAL C   6       8.512  22.690   7.027  1.00  0.00     0.088 H 
ATOM     79  C   VAL C   6       6.223  23.097   7.041  1.00  0.00     0.241 C 
ATOM     80  O   VAL C   6       5.086  22.632   7.169  1.00  0.00    -0.271 OA
ATOM     81  CB  VAL C   6       7.433  21.066   6.311  1.00  0.00    -0.033 C 
ATOM     82  HB  VAL C   6       6.409  20.518   6.594  1.00  0.00     0.042 H 
ATOM     83  CG1 VAL C   6       6.890  21.270   4.891  1.00  0.00    -0.071 C 
ATOM     84 1HG1 VAL C   6       6.990  20.296   4.194  1.00  0.00     0.028 H 
ATOM     85 2HG1 VAL C   6       7.576  22.038   4.284  1.00  0.00     0.028 H 
ATOM     86 3HG1 VAL C   6       5.748  21.535   4.642  1.00  0.00     0.028 H 
ATOM     87  CG2 VAL C   6       8.242  19.797   6.575  1.00  0.00    -0.071 C 
ATOM     88 1HG2 VAL C   6       9.060  19.749   5.697  1.00  0.00     0.028 H 
ATOM     89 2HG2 VAL C   6       8.982  19.741   7.508  1.00  0.00     0.028 H 
ATOM     90 3HG2 VAL C   6       7.713  18.728   6.474  1.00  0.00     0.028 H 
ATOM     91  N   PHE C   7       6.451  24.357   6.673  1.00  0.00    -0.346 N 
ATOM     92  H   PHE C   7       7.499  24.875   6.880  1.00  0.00     0.163 HD
ATOM     93  CA  PHE C   7       5.361  25.277   6.375  1.00  0.00     0.093 C 
ATOM     94  HA  PHE C   7       4.342  24.707   6.140  1.00  0.00     0.088 H 
ATOM     95  C   PHE C   7       5.714  26.166   5.190  1.00  0.00     0.241 C 
ATOM     96  O   PHE C   7       6.608  27.014   5.286  1.00  0.00    -0.271 OA
ATOM     97  CB  PHE C   7       5.071  26.176   7.580  1.00  0.00    -0.014 C 
ATOM     98  HB2 PHE C   7       5.904  26.084   8.433  1.00  0.00     0.043 H 
ATOM     99  HB3 PHE C   7       4.119  25.666   8.093  1.00  0.00     0.043 H 
ATOM    100  CG  PHE C   7       4.802  27.646   7.857  1.00  0.00    -0.056 A 
ATOM    101  CD1 PHE C   7       5.801  28.617   7.679  1.00  0.00    -0.077 A 
ATOM    102  HD1 PHE C   7       6.968  28.513   7.492  1.00  0.00     0.084 H 
ATOM    103  CE1 PHE C   7       5.622  29.908   8.223  1.00  0.00    -0.082 A 
ATOM    104  HE1 PHE C   7       6.458  30.749   8.281  1.00  0.00     0.083 H 
ATOM    105  CZ  PHE C   7       4.375  30.267   8.753  1.00  0.00    -0.083 A 
ATOM    106  HZ  PHE C   7       4.141  31.395   9.041  1.00  0.00     0.083 H 
ATOM    107  CE2 PHE C   7       3.371  29.315   8.909  1.00  0.00    -0.082 A 
ATOM    108  HE2 PHE C   7       2.468  29.571   9.637  1.00  0.00     0.083 H 
ATOM    109  CD2 PHE C   7       3.544  28.023   8.357  1.00  0.00    -0.077 A 
ATOM    110  HD2 PHE C   7       2.479  27.514   8.224  1.00  0.00     0.084 H 
ATOM    111  N   TYR C   8       5.018  25.980   4.069  1.00  0.00    -0.346 N 
ATOM    112  H   TYR C   8       3.998  25.372   4.002  1.00  0.00     0.163 HD
ATOM    113  CA  TYR C   8       5.259  26.799   2.856  1.00  0.00     0.093 C 
ATOM    114  HA  TYR C   8       4.887  27.915   3.057  1.00  0.00     0.088 H 
ATOM    115  C   TYR C   8       4.249  26.422   1.754  1.00  0.00     0.241 C 
ATOM    116  O   TYR C   8       3.987  25.237   1.522  1.00  0.00    -0.271 OA
ATOM    117  CB  TYR C   8       6.674  26.566   2.322  1.00  0.00    -0.014 C 
ATOM    118  HB2 TYR C   8       6.965  27.503   1.633  1.00  0.00     0.043 H 
ATOM    119  HB3 TYR C   8       6.700  25.505   1.776  1.00  0.00     0.043 H 
ATOM    120  CG  TYR C   8       7.903  26.468   3.197  1.00  0.00    -0.056 A 
ATOM    121  CD1 TYR C   8       8.429  27.579   3.892  1.00  0.00    -0.074 A 
ATOM    122  HD1 TYR C   8       8.486  28.675   3.436  1.00  0.00     0.084 H 
ATOM    123  CE1 TYR C   8       9.383  27.384   4.903  1.00  0.00    -0.051 A 
ATOM    124  HE1 TYR C   8       9.867  28.316   5.458  1.00  0.00     0.087 H 
ATOM    125  CZ  TYR C   8       9.885  26.082   5.149  1.00  0.00     0.065 A 
ATOM    126  OH  TYR C   8      10.743  25.858   6.178  1.00  0.00    -0.361 OA
ATOM    127  HH  TYR C   8      11.827  26.261   5.923  1.00  0.00     0.217 HD
ATOM    128  CE2 TYR C   8       9.492  25.009   4.321  1.00  0.00    -0.051 A 
ATOM    129  HE2 TYR C   8      10.301  24.143   4.228  1.00  0.00     0.087 H 
ATOM    130  CD2 TYR C   8       8.533  25.214   3.321  1.00  0.00    -0.074 A 
ATOM    131  HD2 TYR C   8       8.744  24.468   2.420  1.00  0.00     0.084 H 
ATOM    132  N   LYS C   9       4.546  26.132   0.205  1.00  0.00    -0.345 N 
ATOM    133  H   LYS C   9       3.445  26.466  -0.111  1.00  0.00     0.163 HD
ATOM    134  CA  LYS C   9       5.446  26.214  -0.946  1.00  0.00     0.096 C 
ATOM    135  HA  LYS C   9       6.615  26.058  -0.766  1.00  0.00     0.089 H 
ATOM    136  C   LYS C   9       5.417  27.680  -1.532  1.00  0.00     0.196 C 
ATOM    137  O   LYS C   9       4.546  28.498  -1.140  1.00  0.00    -0.646 OA
ATOM    138  CB  LYS C   9       5.010  25.222  -2.159  1.00  0.00    -0.037 C 
ATOM    139  HB2 LYS C   9       5.158  25.921  -3.122  1.00  0.00     0.036 H 
ATOM    140  HB3 LYS C   9       3.828  25.095  -2.002  1.00  0.00     0.036 H 
ATOM    141  CG  LYS C   9       5.790  23.928  -2.413  1.00  0.00    -0.061 C 
ATOM    142  HG2 LYS C   9       5.716  23.262  -1.420  1.00  0.00     0.033 H 
ATOM    143  HG3 LYS C   9       6.940  24.099  -2.709  1.00  0.00     0.033 H 
ATOM    144  CD  LYS C   9       4.986  23.396  -3.603  1.00  0.00    -0.043 C 
ATOM    145  HD2 LYS C   9       3.949  22.987  -3.158  1.00  0.00     0.035 H 
ATOM    146  HD3 LYS C   9       4.582  24.087  -4.492  1.00  0.00     0.035 H 
ATOM    147  CE  LYS C   9       5.564  22.113  -4.154  1.00  0.00     0.080 C 
ATOM    148  HE2 LYS C   9       4.687  21.404  -4.559  1.00  0.00     0.075 H 
ATOM    149  HE3 LYS C   9       6.135  21.372  -3.401  1.00  0.00     0.075 H 
ATOM    150  NZ  LYS C   9       6.378  22.508  -5.312  1.00  0.00    -0.079 N 
ATOM    151  HZ1 LYS C   9       7.514  22.161  -5.136  1.00  0.00     0.274 HD
ATOM    152  HZ2 LYS C   9       6.523  23.608  -5.767  1.00  0.00     0.274 HD
ATOM    153  HZ3 LYS C   9       6.053  21.899  -6.294  1.00  0.00     0.274 HD
ATOM    154  OXT LYS C   9       6.232  28.069  -2.355  1.00  0.00    -0.646 OA
ENDROOT
TORSDOF 34
