REMARK  0 active torsions:
REMARK  status: ('A' for Active; 'I' for Inactive)
REMARK       I    between atoms: N_1  and  CA_5 
REMARK       I    between atoms: CA_5  and  C_7 
REMARK       I    between atoms: CA_5  and  CB_9 
REMARK       I    between atoms: C_7  and  N_14 
REMARK       I    between atoms: CB_9  and  OG_12 
REMARK       I    between atoms: N_14  and  CA_16 
REMARK       I    between atoms: CA_16  and  CB_20 
REMARK       I    between atoms: CA_16  and  C_18 
REMARK       I    between atoms: C_18  and  N_28 
REMARK       I    between atoms: CB_20  and  CG2_22 
REMARK       I    between atoms: CB_20  and  OG1_26 
REMARK       I    between atoms: N_28  and  CA_30 
REMARK       I    between atoms: CA_30  and  C_32 
REMARK       I    between atoms: CA_30  and  CB_34 
REMARK       I    between atoms: C_32  and  N_48 
REMARK       I    between atoms: CB_34  and  CG_37 
REMARK       I    between atoms: N_48  and  CA_50 
REMARK       I    between atoms: CA_50  and  CB_54 
REMARK       I    between atoms: CA_50  and  C_52 
REMARK       I    between atoms: C_52  and  N_60 
REMARK       I    between atoms: CB_54  and  CG_57 
REMARK       I    between atoms: N_60  and  CA_62 
REMARK       I    between atoms: CA_62  and  CB_66 
REMARK       I    between atoms: CA_62  and  C_64 
REMARK       I    between atoms: C_64  and  N_75 
REMARK       I    between atoms: CB_66  and  CG_69 
REMARK       I    between atoms: CG_69  and  CD_72 
REMARK       I    between atoms: N_75  and  CA_77 
REMARK       I    between atoms: CA_77  and  C_79 
REMARK       I    between atoms: CA_77  and  CB_81 
REMARK       I    between atoms: C_79  and  N_91 
REMARK       I    between atoms: N_91  and  CA_93 
REMARK       I    between atoms: CA_93  and  CB_97 
REMARK       I    between atoms: CA_93  and  C_95 
REMARK       I    between atoms: C_95  and  N_111 
REMARK       I    between atoms: CB_97  and  CG_100 
REMARK       I    between atoms: N_111  and  CA_113 
REMARK       I    between atoms: CA_113  and  C_115 
REMARK       I    between atoms: CA_113  and  CB_117 
REMARK       I    between atoms: C_115  and  N_132 
REMARK       I    between atoms: CB_117  and  CG_120 
REMARK       I    between atoms: CZ_125  and  OH_126 
REMARK       I    between atoms: N_132  and  CA_134 
REMARK       I    between atoms: CA_134  and  C_136 
REMARK       I    between atoms: CA_134  and  CB_138 
REMARK       I    between atoms: CB_138  and  CG_141 
REMARK       I    between atoms: CG_141  and  CD_144 
REMARK       I    between atoms: CD_144  and  CE_147 
REMARK       I    between atoms: CE_147  and  NZ_150 
ROOT
ATOM      1  N   SER C   1       3.569  10.245  15.174  1.00  0.00    -0.064 N 
ATOM      2  H   SER C   1       4.645   9.790  15.439  1.00  0.00     0.275 HD
ATOM      3  H2  SER C   1       3.482   9.926  14.021  1.00  0.00     0.275 HD
ATOM      4  H3  SER C   1       2.806   9.458  15.664  1.00  0.00     0.275 HD
ATOM      5  CA  SER C   1       3.063  11.615  15.582  1.00  0.00     0.195 C 
ATOM      6  HA  SER C   1       1.882  11.537  15.734  1.00  0.00     0.102 H 
ATOM      7  C   SER C   1       3.501  12.536  14.439  1.00  0.00     0.251 C 
ATOM      8  O   SER C   1       4.647  12.524  13.986  1.00  0.00    -0.271 OA
ATOM      9  CB  SER C   1       3.799  12.126  16.857  1.00  0.00     0.051 C 
ATOM     10  HB2 SER C   1       3.048  12.070  17.788  1.00  0.00     0.077 H 
ATOM     11  HB3 SER C   1       4.279  13.217  16.942  1.00  0.00     0.077 H 
ATOM     12  OG  SER C   1       4.767  11.159  17.256  1.00  0.00    -0.398 OA
ATOM     13  HG  SER C   1       5.530  11.630  18.031  1.00  0.00     0.209 HD
ATOM     14  N   THR C   2       2.942  13.463  14.545  1.00  0.00    -0.344 N 
ATOM     15  H   THR C   2       2.085  14.020  15.157  1.00  0.00     0.163 HD
ATOM     16  CA  THR C   2       3.592  14.154  13.418  1.00  0.00     0.113 C 
ATOM     17  HA  THR C   2       4.284  14.916  14.026  1.00  0.00     0.091 H 
ATOM     18  C   THR C   2       2.625  15.072  12.703  1.00  0.00     0.243 C 
ATOM     19  O   THR C   2       1.410  14.854  12.739  1.00  0.00    -0.271 OA
ATOM     20  CB  THR C   2       4.121  13.141  12.399  1.00  0.00     0.060 C 
ATOM     21  HB  THR C   2       3.817  11.988  12.255  1.00  0.00     0.086 H 
ATOM     22  CG2 THR C   2       5.636  13.276  12.225  1.00  0.00    -0.050 C 
ATOM     23 1HG2 THR C   2       6.087  14.337  11.890  1.00  0.00     0.031 H 
ATOM     24 2HG2 THR C   2       6.041  12.521  11.382  1.00  0.00     0.031 H 
ATOM     25 3HG2 THR C   2       6.469  13.020  13.054  1.00  0.00     0.031 H 
ATOM     26  OG1 THR C   2       3.518  13.222  11.120  1.00  0.00    -0.393 OA
ATOM     27  HG1 THR C   2       4.273  13.641  10.309  1.00  0.00     0.210 HD
ATOM     28  N   PHE C   3       3.150  16.107  12.049  1.00  0.00    -0.346 N 
ATOM     29  H   PHE C   3       4.291  16.436  12.097  1.00  0.00     0.163 HD
ATOM     30  CA  PHE C   3       2.318  17.047  11.309  1.00  0.00     0.088 C 
ATOM     31  HA  PHE C   3       1.209  16.609  11.296  1.00  0.00     0.087 H 
ATOM     32  C   PHE C   3       2.860  17.255   9.901  1.00  0.00     0.221 C 
ATOM     33  O   PHE C   3       4.003  17.691   9.726  1.00  0.00    -0.278 OA
ATOM     34  CB  PHE C   3       2.282  18.404  12.014  1.00  0.00    -0.014 C 
ATOM     35  HB2 PHE C   3       1.187  18.861  11.851  1.00  0.00     0.043 H 
ATOM     36  HB3 PHE C   3       2.219  18.186  13.190  1.00  0.00     0.043 H 
ATOM     37  CG  PHE C   3       3.256  19.554  11.995  1.00  0.00    -0.056 A 
ATOM     38  CD1 PHE C   3       4.371  19.691  12.801  1.00  0.00    -0.077 A 
ATOM     39  HD1 PHE C   3       4.545  19.198  13.869  1.00  0.00     0.084 H 
ATOM     40  CE1 PHE C   3       5.262  20.765  12.585  1.00  0.00    -0.082 A 
ATOM     41  HE1 PHE C   3       6.286  20.778  13.190  1.00  0.00     0.083 H 
ATOM     42  CZ  PHE C   3       4.748  21.882  11.921  1.00  0.00    -0.083 A 
ATOM     43  HZ  PHE C   3       5.022  22.832  12.589  1.00  0.00     0.083 H 
ATOM     44  CE2 PHE C   3       3.469  21.866  11.337  1.00  0.00    -0.082 A 
ATOM     45  HE2 PHE C   3       2.697  22.651  11.796  1.00  0.00     0.083 H 
ATOM     46  CD2 PHE C   3       2.979  20.588  11.104  1.00  0.00    -0.077 A 
ATOM     47  HD2 PHE C   3       1.915  20.675  10.579  1.00  0.00     0.084 H 
ATOM     48  N   ASP C   4       2.047  16.946   8.891  1.00  0.00    -0.247 NA
ATOM     49  H   ASP C   4       1.078  17.578   9.178  1.00  0.00     0.131 HD
ATOM     50  CA  ASP C   4       2.451  17.121   7.502  1.00  0.00     0.085 C 
ATOM     51  HA  ASP C   4       3.610  16.859   7.398  1.00  0.00     0.080 H 
ATOM     52  C   ASP C   4       2.062  18.506   6.998  1.00  0.00     0.236 C 
ATOM     53  O   ASP C   4       1.077  19.088   7.463  1.00  0.00    -0.272 OA
ATOM     54  CB  ASP C   4       1.774  16.079   6.609  1.00  0.00     0.039 C 
ATOM     55  HB2 ASP C   4       1.380  16.318   5.507  1.00  0.00     0.052 H 
ATOM     56  HB3 ASP C   4       2.429  15.090   6.458  1.00  0.00     0.052 H 
ATOM     57  CG  ASP C   4       0.519  15.554   7.355  1.00  0.00     0.174 C 
ATOM     58  OD1 ASP C   4       0.193  16.012   8.481  1.00  0.00    -0.648 OA
ATOM     59  OD2 ASP C   4      -0.199  14.687   6.806  1.00  0.00    -0.648 OA
ATOM     60  N   GLU C   5       2.830  19.038   6.049  1.00  0.00    -0.346 N 
ATOM     61  H   GLU C   5       3.606  18.400   5.408  1.00  0.00     0.163 HD
ATOM     62  CA  GLU C   5       2.544  20.348   5.477  1.00  0.00     0.090 C 
ATOM     63  HA  GLU C   5       3.391  20.599   4.671  1.00  0.00     0.087 H 
ATOM     64  C   GLU C   5       2.486  21.411   6.567  1.00  0.00     0.241 C 
ATOM     65  O   GLU C   5       1.484  22.122   6.696  1.00  0.00    -0.271 OA
ATOM     66  CB  GLU C   5       1.198  20.334   4.748  1.00  0.00    -0.029 C 
ATOM     67  HB2 GLU C   5       1.295  21.374   4.166  1.00  0.00     0.037 H 
ATOM     68  HB3 GLU C   5       1.404  19.374   4.063  1.00  0.00     0.037 H 
ATOM     69  CG  GLU C   5      -0.275  20.257   5.182  1.00  0.00     0.018 C 
ATOM     70  HG2 GLU C   5      -0.773  21.023   5.952  1.00  0.00     0.049 H 
ATOM     71  HG3 GLU C   5      -0.813  19.214   5.411  1.00  0.00     0.049 H 
ATOM     72  CD  GLU C   5      -0.902  20.566   3.823  1.00  0.00     0.172 C 
ATOM     73  OE1 GLU C   5      -0.083  20.306   2.911  1.00  0.00    -0.648 OA
ATOM     74  OE2 GLU C   5      -1.942  21.267   3.702  1.00  0.00    -0.648 OA
ATOM     75  N   VAL C   6       3.555  21.524   7.353  1.00  0.00    -0.346 N 
ATOM     76  H   VAL C   6       3.824  20.381   7.184  1.00  0.00     0.163 HD
ATOM     77  CA  VAL C   6       3.621  22.520   8.418  1.00  0.00     0.092 C 
ATOM     78  HA  VAL C   6       2.549  22.876   8.807  1.00  0.00     0.088 H 
ATOM     79  C   VAL C   6       4.158  23.842   7.887  1.00  0.00     0.241 C 
ATOM     80  O   VAL C   6       4.376  24.785   8.655  1.00  0.00    -0.271 OA
ATOM     81  CB  VAL C   6       4.543  22.044   9.542  1.00  0.00    -0.033 A 
ATOM     82  HB  VAL C   6       4.653  23.110  10.073  1.00  0.00     0.042 H 
ATOM     83  CG1 VAL C   6       5.882  21.319   9.771  1.00  0.00    -0.071 A 
ATOM     84 1HG1 VAL C   6       5.842  20.293  10.398  1.00  0.00     0.028 H 
ATOM     85 2HG1 VAL C   6       6.948  20.952   9.317  1.00  0.00     0.028 H 
ATOM     86 3HG1 VAL C   6       6.508  22.134  10.407  1.00  0.00     0.028 H 
ATOM     87  CG2 VAL C   6       5.196  21.490   8.269  1.00  0.00    -0.071 A 
ATOM     88 1HG2 VAL C   6       5.901  22.461   8.101  1.00  0.00     0.028 H 
ATOM     89 2HG2 VAL C   6       5.810  21.149   7.272  1.00  0.00     0.028 H 
ATOM     90 3HG2 VAL C   6       5.016  20.323   8.519  1.00  0.00     0.028 H 
ATOM     91  N   PHE C   7       4.373  23.915   6.574  1.00  0.00    -0.346 N 
ATOM     92  H   PHE C   7       4.375  23.148   5.667  1.00  0.00     0.163 HD
ATOM     93  CA  PHE C   7       4.868  25.134   5.946  1.00  0.00     0.088 C 
ATOM     94  HA  PHE C   7       4.627  26.003   6.726  1.00  0.00     0.087 H 
ATOM     95  C   PHE C   7       4.036  25.483   4.718  1.00  0.00     0.221 C 
ATOM     96  O   PHE C   7       2.878  25.070   4.607  1.00  0.00    -0.278 OA
ATOM     97  CB  PHE C   7       6.323  24.959   5.505  1.00  0.00    -0.017 C 
ATOM     98  HB2 PHE C   7       6.562  24.149   4.663  1.00  0.00     0.043 H 
ATOM     99  HB3 PHE C   7       7.174  24.728   6.309  1.00  0.00     0.043 H 
ATOM    100  CG  PHE C   7       6.599  26.426   5.189  1.00  0.00    -0.069 A 
ATOM    101  CD1 PHE C   7       6.889  27.378   6.185  1.00  0.00    -0.080 A 
ATOM    102  HD1 PHE C   7       7.719  27.255   7.027  1.00  0.00     0.083 H 
ATOM    103  CE1 PHE C   7       6.551  28.735   5.983  1.00  0.00    -0.083 A 
ATOM    104  HE1 PHE C   7       6.626  29.492   6.897  1.00  0.00     0.083 H 
ATOM    105  CZ  PHE C   7       6.332  29.253   4.692  1.00  0.00    -0.086 A 
ATOM    106  HZ  PHE C   7       6.281  30.434   4.565  1.00  0.00     0.083 H 
ATOM    107  CE2 PHE C   7       6.494  28.330   3.642  1.00  0.00    -0.094 A 
ATOM    108  HE2 PHE C   7       7.196  28.883   2.854  1.00  0.00     0.077 H 
ATOM    109  CD2 PHE C   7       6.528  26.933   3.883  1.00  0.00    -0.005 A 
ATOM    110  HD2 PHE C   7       7.473  26.444   3.342  1.00  0.00     0.054 H 
ATOM    111  N   TYR C   8       4.620  26.244   3.793  1.00  0.00    -0.247 NA
ATOM    112  H   TYR C   8       4.546  27.248   4.425  1.00  0.00     0.131 HD
ATOM    113  CA  TYR C   8       3.916  26.633   2.546  1.00  0.00     0.080 C 
ATOM    114  HA  TYR C   8       3.229  25.692   2.293  1.00  0.00     0.079 H 
ATOM    115  C   TYR C   8       4.909  26.665   1.367  1.00  0.00     0.236 C 
ATOM    116  O   TYR C   8       6.025  27.178   1.500  1.00  0.00    -0.272 OA
ATOM    117  CB  TYR C   8       3.288  28.020   2.694  1.00  0.00    -0.018 C 
ATOM    118  HB2 TYR C   8       2.579  28.248   1.755  1.00  0.00     0.043 H 
ATOM    119  HB3 TYR C   8       3.843  29.080   2.686  1.00  0.00     0.043 H 
ATOM    120  CG  TYR C   8       2.331  27.885   3.850  1.00  0.00    -0.056 A 
ATOM    121  CD1 TYR C   8       1.148  27.182   3.639  1.00  0.00    -0.074 A 
ATOM    122  HD1 TYR C   8       0.635  26.712   2.674  1.00  0.00     0.084 H 
ATOM    123  CE1 TYR C   8       0.110  27.353   4.576  1.00  0.00    -0.051 A 
ATOM    124  HE1 TYR C   8      -1.001  26.943   4.481  1.00  0.00     0.087 H 
ATOM    125  CZ  TYR C   8       0.392  28.064   5.763  1.00  0.00     0.065 A 
ATOM    126  OH  TYR C   8      -0.576  28.672   6.531  1.00  0.00    -0.361 OA
ATOM    127  HH  TYR C   8      -0.261  29.784   6.787  1.00  0.00     0.217 HD
ATOM    128  CE2 TYR C   8       1.725  28.176   6.186  1.00  0.00    -0.051 A 
ATOM    129  HE2 TYR C   8       2.009  28.079   7.335  1.00  0.00     0.087 H 
ATOM    130  CD2 TYR C   8       2.617  28.403   5.122  1.00  0.00    -0.074 A 
ATOM    131  HD2 TYR C   8       2.982  29.526   5.265  1.00  0.00     0.084 H 
ATOM    132  N   LYS C   9       4.546  26.132   0.205  1.00  0.00    -0.345 N 
ATOM    133  H   LYS C   9       3.387  25.950   0.019  1.00  0.00     0.163 HD
ATOM    134  CA  LYS C   9       5.446  26.214  -0.946  1.00  0.00     0.096 C 
ATOM    135  HA  LYS C   9       6.599  26.089  -0.671  1.00  0.00     0.089 H 
ATOM    136  C   LYS C   9       5.417  27.680  -1.532  1.00  0.00     0.196 C 
ATOM    137  O   LYS C   9       4.546  28.498  -1.140  1.00  0.00    -0.646 OA
ATOM    138  CB  LYS C   9       5.010  25.222  -2.159  1.00  0.00    -0.037 C 
ATOM    139  HB2 LYS C   9       3.828  25.316  -2.037  1.00  0.00     0.036 H 
ATOM    140  HB3 LYS C   9       5.666  24.339  -1.692  1.00  0.00     0.036 H 
ATOM    141  CG  LYS C   9       5.242  25.161  -3.663  1.00  0.00    -0.061 C 
ATOM    142  HG2 LYS C   9       4.747  26.070  -4.262  1.00  0.00     0.033 H 
ATOM    143  HG3 LYS C   9       6.411  25.205  -3.905  1.00  0.00     0.033 H 
ATOM    144  CD  LYS C   9       4.496  23.813  -3.782  1.00  0.00    -0.043 C 
ATOM    145  HD2 LYS C   9       3.318  24.016  -3.705  1.00  0.00     0.035 H 
ATOM    146  HD3 LYS C   9       4.728  22.916  -3.025  1.00  0.00     0.035 H 
ATOM    147  CE  LYS C   9       4.387  23.015  -5.088  1.00  0.00     0.080 C 
ATOM    148  HE2 LYS C   9       4.838  21.910  -4.978  1.00  0.00     0.075 H 
ATOM    149  HE3 LYS C   9       3.277  22.779  -5.473  1.00  0.00     0.075 H 
ATOM    150  NZ  LYS C   9       5.166  23.697  -6.132  1.00  0.00    -0.079 N 
ATOM    151  HZ1 LYS C   9       5.135  22.968  -7.088  1.00  0.00     0.274 HD
ATOM    152  HZ2 LYS C   9       6.352  23.840  -6.042  1.00  0.00     0.274 HD
ATOM    153  HZ3 LYS C   9       4.659  24.679  -6.595  1.00  0.00     0.274 HD
ATOM    154  OXT LYS C   9       5.970  27.827  -2.646  1.00  0.00    -0.646 OA
ENDROOT
TORSDOF 41
