REMARK  0 active torsions:
REMARK  status: ('A' for Active; 'I' for Inactive)
REMARK       I    between atoms: N_1  and  CA_5 
REMARK       I    between atoms: CA_5  and  CB_9 
REMARK       I    between atoms: CA_5  and  C_7 
REMARK       I    between atoms: N_14  and  C_7 
REMARK       I    between atoms: CB_9  and  OG_12 
REMARK       I    between atoms: N_14  and  CA_16 
REMARK       I    between atoms: CA_16  and  CB_20 
REMARK       I    between atoms: CA_16  and  C_18 
REMARK       I    between atoms: C_18  and  N_28 
REMARK       I    between atoms: CB_20  and  OG1_26 
REMARK       I    between atoms: CB_20  and  CG2_22 
REMARK       I    between atoms: N_28  and  CA_30 
REMARK       I    between atoms: CA_30  and  C_32 
REMARK       I    between atoms: CA_30  and  CB_34 
REMARK       I    between atoms: C_32  and  N_48 
REMARK       I    between atoms: CB_34  and  CG_37 
REMARK       I    between atoms: N_48  and  CA_50 
REMARK       I    between atoms: CA_50  and  CB_54 
REMARK       I    between atoms: CA_50  and  C_52 
REMARK       I    between atoms: C_52  and  N_60 
REMARK       I    between atoms: CB_54  and  CG_57 
REMARK       I    between atoms: N_60  and  CA_62 
REMARK       I    between atoms: CA_62  and  CB_66 
REMARK       I    between atoms: CA_62  and  C_64 
REMARK       I    between atoms: C_64  and  N_75 
REMARK       I    between atoms: CB_66  and  CG_69 
REMARK       I    between atoms: CG_69  and  CD_72 
REMARK       I    between atoms: N_75  and  CA_77 
REMARK       I    between atoms: CA_77  and  C_79 
REMARK       I    between atoms: CA_77  and  CB_81 
REMARK       I    between atoms: C_79  and  N_91 
REMARK       I    between atoms: CB_81  and  CG1_83 
REMARK       I    between atoms: CB_81  and  CG2_87 
REMARK       I    between atoms: N_91  and  CA_93 
REMARK       I    between atoms: CA_93  and  C_95 
REMARK       I    between atoms: CA_93  and  CB_97 
REMARK       I    between atoms: C_95  and  N_111 
REMARK       I    between atoms: CB_97  and  CG_100 
REMARK       I    between atoms: N_111  and  CA_113 
REMARK       I    between atoms: CA_113  and  C_115 
REMARK       I    between atoms: CA_113  and  CB_117 
REMARK       I    between atoms: C_115  and  N_132 
REMARK       I    between atoms: CB_117  and  CG_120 
REMARK       I    between atoms: CZ_125  and  OH_126 
REMARK       I    between atoms: N_132  and  CA_134 
REMARK       I    between atoms: CA_134  and  C_136 
REMARK       I    between atoms: CA_134  and  CB_138 
REMARK       I    between atoms: CB_138  and  CG_141 
REMARK       I    between atoms: CG_141  and  CD_144 
REMARK       I    between atoms: CD_144  and  CE_147 
REMARK       I    between atoms: CE_147  and  NZ_150 
ROOT
ATOM      1  N   SER C   1       3.569  10.245  15.174  1.00  0.00    -0.064 N 
ATOM      2  H   SER C   1       4.683  10.035  14.791  1.00  0.00     0.275 HD
ATOM      3  H2  SER C   1       2.868   9.885  14.271  1.00  0.00     0.275 HD
ATOM      4  H3  SER C   1       3.402   9.397  16.004  1.00  0.00     0.275 HD
ATOM      5  CA  SER C   1       3.063  11.615  15.582  1.00  0.00     0.195 C 
ATOM      6  HA  SER C   1       1.879  11.603  15.714  1.00  0.00     0.102 H 
ATOM      7  C   SER C   1       3.501  12.536  14.439  1.00  0.00     0.251 C 
ATOM      8  O   SER C   1       4.647  12.524  13.986  1.00  0.00    -0.271 OA
ATOM      9  CB  SER C   1       3.799  12.126  16.857  1.00  0.00     0.051 C 
ATOM     10  HB2 SER C   1       3.225  13.097  17.250  1.00  0.00     0.077 H 
ATOM     11  HB3 SER C   1       4.958  12.379  16.720  1.00  0.00     0.077 H 
ATOM     12  OG  SER C   1       3.739  11.222  17.945  1.00  0.00    -0.398 OA
ATOM     13  HG  SER C   1       4.318  11.673  18.877  1.00  0.00     0.209 HD
ATOM     14  N   THR C   2       3.458  14.018  13.565  1.00  0.00    -0.344 N 
ATOM     15  H   THR C   2       4.586  14.391  13.580  1.00  0.00     0.163 HD
ATOM     16  CA  THR C   2       2.639  15.028  12.871  1.00  0.00     0.113 C 
ATOM     17  HA  THR C   2       2.658  14.466  11.817  1.00  0.00     0.091 H 
ATOM     18  C   THR C   2       3.338  16.370  12.830  1.00  0.00     0.243 C 
ATOM     19  O   THR C   2       4.176  16.666  13.687  1.00  0.00    -0.271 OA
ATOM     20  CB  THR C   2       1.298  15.215  13.585  1.00  0.00     0.060 C 
ATOM     21  HB  THR C   2       0.632  15.034  12.603  1.00  0.00     0.086 H 
ATOM     22  CG2 THR C   2       0.717  16.604  13.870  1.00  0.00    -0.050 C 
ATOM     23 1HG2 THR C   2      -0.252  16.497  14.572  1.00  0.00     0.031 H 
ATOM     24 2HG2 THR C   2       0.217  17.245  12.992  1.00  0.00     0.031 H 
ATOM     25 3HG2 THR C   2       1.405  17.262  14.594  1.00  0.00     0.031 H 
ATOM     26  OG1 THR C   2       0.608  14.087  14.100  1.00  0.00    -0.393 OA
ATOM     27  HG1 THR C   2       0.370  14.240  15.251  1.00  0.00     0.210 HD
ATOM     28  N   PHE C   3       3.002  17.193  11.838  1.00  0.00    -0.346 N 
ATOM     29  H   PHE C   3       2.280  16.823  10.968  1.00  0.00     0.163 HD
ATOM     30  CA  PHE C   3       3.595  18.518  11.709  1.00  0.00     0.093 C 
ATOM     31  HA  PHE C   3       4.492  18.617  12.488  1.00  0.00     0.088 H 
ATOM     32  C   PHE C   3       2.535  19.601  11.873  1.00  0.00     0.241 C 
ATOM     33  O   PHE C   3       1.514  19.590  11.179  1.00  0.00    -0.271 OA
ATOM     34  CB  PHE C   3       4.242  18.685  10.333  1.00  0.00    -0.014 C 
ATOM     35  HB2 PHE C   3       3.998  17.754   9.619  1.00  0.00     0.043 H 
ATOM     36  HB3 PHE C   3       5.391  18.427  10.545  1.00  0.00     0.043 H 
ATOM     37  CG  PHE C   3       4.172  19.701   9.243  1.00  0.00    -0.056 A 
ATOM     38  CD1 PHE C   3       2.970  19.935   8.563  1.00  0.00    -0.080 A 
ATOM     39  HD1 PHE C   3       1.981  19.275   8.571  1.00  0.00     0.083 H 
ATOM     40  CE1 PHE C   3       3.014  20.709   7.395  1.00  0.00    -0.094 A 
ATOM     41  HE1 PHE C   3       2.087  20.617   6.655  1.00  0.00     0.077 H 
ATOM     42  CZ  PHE C   3       4.214  21.366   7.096  1.00  0.00    -0.012 A 
ATOM     43  HZ  PHE C   3       3.612  22.374   7.286  1.00  0.00     0.053 H 
ATOM     44  CE2 PHE C   3       5.409  21.118   7.771  1.00  0.00    -0.094 A 
ATOM     45  HE2 PHE C   3       6.565  21.104   7.492  1.00  0.00     0.077 H 
ATOM     46  CD2 PHE C   3       5.378  20.331   8.930  1.00  0.00    -0.080 A 
ATOM     47  HD2 PHE C   3       6.436  20.129   9.436  1.00  0.00     0.083 H 
ATOM     48  N   ASP C   4       2.771  20.538  12.790  1.00  0.00    -0.345 N 
ATOM     49  H   ASP C   4       3.904  20.687  13.117  1.00  0.00     0.163 HD
ATOM     50  CA  ASP C   4       1.839  21.634  13.021  1.00  0.00     0.098 C 
ATOM     51  HA  ASP C   4       0.769  21.648  12.493  1.00  0.00     0.088 H 
ATOM     52  C   ASP C   4       2.438  22.958  12.564  1.00  0.00     0.241 C 
ATOM     53  O   ASP C   4       2.102  24.018  13.103  1.00  0.00    -0.271 OA
ATOM     54  CB  ASP C   4       1.502  21.748  14.510  1.00  0.00     0.043 C 
ATOM     55  HB2 ASP C   4       0.630  20.972  14.771  1.00  0.00     0.052 H 
ATOM     56  HB3 ASP C   4       1.072  22.798  14.893  1.00  0.00     0.052 H 
ATOM     57  CG  ASP C   4       2.525  21.366  15.574  1.00  0.00     0.175 C 
ATOM     58  OD1 ASP C   4       3.659  21.056  15.153  1.00  0.00    -0.648 OA
ATOM     59  OD2 ASP C   4       2.179  21.487  16.773  1.00  0.00    -0.648 OA
ATOM     60  N   GLU C   5       3.326  22.906  11.573  1.00  0.00    -0.346 N 
ATOM     61  H   GLU C   5       3.586  21.948  10.928  1.00  0.00     0.163 HD
ATOM     62  CA  GLU C   5       3.951  24.110  11.040  1.00  0.00     0.090 C 
ATOM     63  HA  GLU C   5       3.915  24.930  11.907  1.00  0.00     0.087 H 
ATOM     64  C   GLU C   5       3.241  24.571   9.773  1.00  0.00     0.241 C 
ATOM     65  O   GLU C   5       2.299  23.920   9.310  1.00  0.00    -0.271 OA
ATOM     66  CB  GLU C   5       5.420  23.848  10.699  1.00  0.00    -0.029 C 
ATOM     67  HB2 GLU C   5       5.933  23.558  11.740  1.00  0.00     0.037 H 
ATOM     68  HB3 GLU C   5       5.696  22.934   9.988  1.00  0.00     0.037 H 
ATOM     69  CG  GLU C   5       6.244  25.004  10.108  1.00  0.00     0.018 C 
ATOM     70  HG2 GLU C   5       6.215  25.898   9.321  1.00  0.00     0.049 H 
ATOM     71  HG3 GLU C   5       6.489  25.668  11.076  1.00  0.00     0.049 H 
ATOM     72  CD  GLU C   5       7.659  24.588   9.699  1.00  0.00     0.172 C 
ATOM     73  OE1 GLU C   5       7.924  24.508   8.476  1.00  0.00    -0.648 OA
ATOM     74  OE2 GLU C   5       8.524  24.581  10.606  1.00  0.00    -0.648 OA
ATOM     75  N   VAL C   6       3.688  25.691   9.207  1.00  0.00    -0.346 N 
ATOM     76  H   VAL C   6       3.862  26.440  10.114  1.00  0.00     0.163 HD
ATOM     77  CA  VAL C   6       3.099  26.218   7.981  1.00  0.00     0.092 C 
ATOM     78  HA  VAL C   6       1.934  25.978   8.087  1.00  0.00     0.088 H 
ATOM     79  C   VAL C   6       3.592  25.439   6.768  1.00  0.00     0.241 C 
ATOM     80  O   VAL C   6       2.792  24.862   6.025  1.00  0.00    -0.271 OA
ATOM     81  CB  VAL C   6       3.475  27.689   7.792  1.00  0.00    -0.033 C 
ATOM     82  HB  VAL C   6       4.598  27.861   8.169  1.00  0.00     0.042 H 
ATOM     83  CG1 VAL C   6       3.247  28.147   6.373  1.00  0.00    -0.071 C 
ATOM     84 1HG1 VAL C   6       4.062  27.673   5.629  1.00  0.00     0.028 H 
ATOM     85 2HG1 VAL C   6       2.385  27.339   6.191  1.00  0.00     0.028 H 
ATOM     86 3HG1 VAL C   6       4.063  29.003   6.614  1.00  0.00     0.028 H 
ATOM     87  CG2 VAL C   6       2.769  28.527   8.858  1.00  0.00    -0.071 C 
ATOM     88 1HG2 VAL C   6       1.713  28.168   9.302  1.00  0.00     0.028 H 
ATOM     89 2HG2 VAL C   6       3.311  28.602   9.933  1.00  0.00     0.028 H 
ATOM     90 3HG2 VAL C   6       2.854  29.721   8.754  1.00  0.00     0.028 H 
ATOM     91  N   PHE C   7       4.909  25.421   6.566  1.00  0.00    -0.346 N 
ATOM     92  H   PHE C   7       5.805  26.100   6.955  1.00  0.00     0.163 HD
ATOM     93  CA  PHE C   7       5.502  24.694   5.451  1.00  0.00     0.093 C 
ATOM     94  HA  PHE C   7       6.591  25.061   5.120  1.00  0.00     0.088 H 
ATOM     95  C   PHE C   7       4.739  24.969   4.161  1.00  0.00     0.241 C 
ATOM     96  O   PHE C   7       4.263  24.039   3.503  1.00  0.00    -0.271 OA
ATOM     97  CB  PHE C   7       5.471  23.187   5.714  1.00  0.00    -0.014 C 
ATOM     98  HB2 PHE C   7       6.672  23.139   5.689  1.00  0.00     0.043 H 
ATOM     99  HB3 PHE C   7       5.359  23.268   6.893  1.00  0.00     0.043 H 
ATOM    100  CG  PHE C   7       5.503  21.861   4.953  1.00  0.00    -0.056 A 
ATOM    101  CD1 PHE C   7       4.364  21.407   4.262  1.00  0.00    -0.077 A 
ATOM    102  HD1 PHE C   7       3.462  21.884   3.655  1.00  0.00     0.084 H 
ATOM    103  CE1 PHE C   7       4.215  20.026   3.990  1.00  0.00    -0.082 A 
ATOM    104  HE1 PHE C   7       3.209  19.479   3.671  1.00  0.00     0.083 H 
ATOM    105  CZ  PHE C   7       5.340  19.195   4.076  1.00  0.00    -0.083 A 
ATOM    106  HZ  PHE C   7       5.334  18.157   3.498  1.00  0.00     0.083 H 
ATOM    107  CE2 PHE C   7       6.507  19.655   4.684  1.00  0.00    -0.082 A 
ATOM    108  HE2 PHE C   7       7.341  18.832   4.884  1.00  0.00     0.083 H 
ATOM    109  CD2 PHE C   7       6.648  21.035   4.974  1.00  0.00    -0.077 A 
ATOM    110  HD2 PHE C   7       7.756  21.306   4.633  1.00  0.00     0.084 H 
ATOM    111  N   TYR C   8       4.620  26.244   3.793  1.00  0.00    -0.346 N 
ATOM    112  H   TYR C   8       5.624  26.878   3.879  1.00  0.00     0.163 HD
ATOM    113  CA  TYR C   8       3.916  26.633   2.546  1.00  0.00     0.093 C 
ATOM    114  HA  TYR C   8       3.000  25.889   2.380  1.00  0.00     0.088 H 
ATOM    115  C   TYR C   8       4.909  26.665   1.367  1.00  0.00     0.241 C 
ATOM    116  O   TYR C   8       6.025  27.178   1.500  1.00  0.00    -0.271 OA
ATOM    117  CB  TYR C   8       3.288  28.020   2.694  1.00  0.00    -0.014 C 
ATOM    118  HB2 TYR C   8       2.434  28.178   1.869  1.00  0.00     0.043 H 
ATOM    119  HB3 TYR C   8       4.066  28.860   2.349  1.00  0.00     0.043 H 
ATOM    120  CG  TYR C   8       2.555  28.478   3.924  1.00  0.00    -0.056 A 
ATOM    121  CD1 TYR C   8       1.323  27.911   4.311  1.00  0.00    -0.074 A 
ATOM    122  HD1 TYR C   8       0.521  27.442   3.568  1.00  0.00     0.084 H 
ATOM    123  CE1 TYR C   8       0.772  28.237   5.558  1.00  0.00    -0.051 A 
ATOM    124  HE1 TYR C   8      -0.393  28.051   5.716  1.00  0.00     0.087 H 
ATOM    125  CZ  TYR C   8       1.448  29.154   6.402  1.00  0.00     0.065 A 
ATOM    126  OH  TYR C   8       0.994  29.373   7.666  1.00  0.00    -0.361 OA
ATOM    127  HH  TYR C   8       0.096  30.151   7.643  1.00  0.00     0.217 HD
ATOM    128  CE2 TYR C   8       2.599  29.834   5.936  1.00  0.00    -0.051 A 
ATOM    129  HE2 TYR C   8       2.519  31.011   6.116  1.00  0.00     0.087 H 
ATOM    130  CD2 TYR C   8       3.150  29.497   4.691  1.00  0.00    -0.074 A 
ATOM    131  HD2 TYR C   8       3.702  30.425   4.186  1.00  0.00     0.084 H 
ATOM    132  N   LYS C   9       4.546  26.132   0.205  1.00  0.00    -0.345 N 
ATOM    133  H   LYS C   9       3.491  25.593   0.110  1.00  0.00     0.163 HD
ATOM    134  CA  LYS C   9       5.446  26.214  -0.946  1.00  0.00     0.096 C 
ATOM    135  HA  LYS C   9       6.596  26.046  -0.686  1.00  0.00     0.089 H 
ATOM    136  C   LYS C   9       5.417  27.680  -1.532  1.00  0.00     0.196 C 
ATOM    137  O   LYS C   9       4.546  28.498  -1.140  1.00  0.00    -0.646 OA
ATOM    138  CB  LYS C   9       5.010  25.222  -2.159  1.00  0.00    -0.037 C 
ATOM    139  HB2 LYS C   9       5.184  25.920  -3.115  1.00  0.00     0.036 H 
ATOM    140  HB3 LYS C   9       3.824  25.112  -2.090  1.00  0.00     0.036 H 
ATOM    141  CG  LYS C   9       5.792  23.926  -2.413  1.00  0.00    -0.061 C 
ATOM    142  HG2 LYS C   9       5.701  23.251  -1.431  1.00  0.00     0.033 H 
ATOM    143  HG3 LYS C   9       6.967  24.067  -2.573  1.00  0.00     0.033 H 
ATOM    144  CD  LYS C   9       4.987  23.396  -3.603  1.00  0.00    -0.043 C 
ATOM    145  HD2 LYS C   9       4.668  24.129  -4.495  1.00  0.00     0.035 H 
ATOM    146  HD3 LYS C   9       3.930  22.993  -3.205  1.00  0.00     0.035 H 
ATOM    147  CE  LYS C   9       5.564  22.114  -4.154  1.00  0.00     0.080 C 
ATOM    148  HE2 LYS C   9       6.141  21.420  -3.368  1.00  0.00     0.075 H 
ATOM    149  HE3 LYS C   9       4.737  21.348  -4.558  1.00  0.00     0.075 H 
ATOM    150  NZ  LYS C   9       6.378  22.509  -5.311  1.00  0.00    -0.079 N 
ATOM    151  HZ1 LYS C   9       7.411  23.100  -5.180  1.00  0.00     0.274 HD
ATOM    152  HZ2 LYS C   9       6.768  21.482  -5.798  1.00  0.00     0.274 HD
ATOM    153  HZ3 LYS C   9       5.863  23.014  -6.270  1.00  0.00     0.274 HD
ATOM    154  OXT LYS C   9       6.224  28.068  -2.366  1.00  0.00    -0.646 OA
ENDROOT
TORSDOF 43
