REMARK  0 active torsions:
REMARK  status: ('A' for Active; 'I' for Inactive)
REMARK       I    between atoms: N_1  and  CA_5 
REMARK       I    between atoms: CA_5  and  C_7 
REMARK       I    between atoms: CA_5  and  CB_9 
REMARK       I    between atoms: C_7  and  N_14 
REMARK       I    between atoms: CB_9  and  OG_12 
REMARK       I    between atoms: N_14  and  CA_16 
REMARK       I    between atoms: CA_16  and  CB_20 
REMARK       I    between atoms: CA_16  and  C_18 
REMARK       I    between atoms: C_18  and  N_28 
REMARK       I    between atoms: CB_20  and  CG2_22 
REMARK       I    between atoms: CB_20  and  OG1_26 
REMARK       I    between atoms: N_28  and  CA_30 
REMARK       I    between atoms: CA_30  and  CB_34 
REMARK       I    between atoms: CA_30  and  C_32 
REMARK       I    between atoms: C_32  and  N_48 
REMARK       I    between atoms: CB_34  and  CG_37 
REMARK       I    between atoms: N_48  and  CA_50 
REMARK       I    between atoms: CA_50  and  C_52 
REMARK       I    between atoms: CA_50  and  CB_54 
REMARK       I    between atoms: C_52  and  N_60 
REMARK       I    between atoms: CB_54  and  CG_57 
REMARK       I    between atoms: N_60  and  CA_62 
REMARK       I    between atoms: CA_62  and  C_64 
REMARK       I    between atoms: CA_62  and  CB_66 
REMARK       I    between atoms: C_64  and  N_75 
REMARK       I    between atoms: CB_66  and  CG_69 
REMARK       I    between atoms: CG_69  and  CD_72 
REMARK       I    between atoms: N_75  and  CA_77 
REMARK       I    between atoms: CA_77  and  CB_81 
REMARK       I    between atoms: CA_77  and  C_79 
REMARK       I    between atoms: C_79  and  N_91 
REMARK       I    between atoms: CB_81  and  CG1_83 
REMARK       I    between atoms: CB_81  and  CG2_87 
REMARK       I    between atoms: N_91  and  CA_93 
REMARK       I    between atoms: CA_93  and  CB_97 
REMARK       I    between atoms: CA_93  and  C_95 
REMARK       I    between atoms: C_95  and  N_111 
REMARK       I    between atoms: CB_97  and  CG_100 
REMARK       I    between atoms: N_111  and  CA_113 
REMARK       I    between atoms: CA_113  and  C_115 
REMARK       I    between atoms: CA_113  and  CB_117 
REMARK       I    between atoms: C_115  and  N_132 
REMARK       I    between atoms: CB_117  and  CG_120 
REMARK       I    between atoms: CZ_125  and  OH_126 
REMARK       I    between atoms: N_132  and  CA_134 
REMARK       I    between atoms: CA_134  and  CB_138 
REMARK       I    between atoms: CA_134  and  C_136 
REMARK       I    between atoms: CB_138  and  CG_141 
REMARK       I    between atoms: CG_141  and  CD_144 
REMARK       I    between atoms: CD_144  and  CE_147 
REMARK       I    between atoms: CE_147  and  NZ_150 
ROOT
ATOM      1  N   SER C   1       3.569  10.245  15.174  1.00  0.00    -0.064 N 
ATOM      2  H   SER C   1       4.726   9.968  15.319  1.00  0.00     0.275 HD
ATOM      3  H2  SER C   1       3.340   9.953  14.034  1.00  0.00     0.275 HD
ATOM      4  H3  SER C   1       3.005   9.371  15.772  1.00  0.00     0.275 HD
ATOM      5  CA  SER C   1       3.063  11.615  15.582  1.00  0.00     0.195 C 
ATOM      6  HA  SER C   1       1.897  11.515  15.812  1.00  0.00     0.102 H 
ATOM      7  C   SER C   1       3.501  12.536  14.439  1.00  0.00     0.251 C 
ATOM      8  O   SER C   1       4.647  12.524  13.986  1.00  0.00    -0.271 OA
ATOM      9  CB  SER C   1       3.799  12.126  16.857  1.00  0.00     0.051 C 
ATOM     10  HB2 SER C   1       4.955  12.392  16.702  1.00  0.00     0.077 H 
ATOM     11  HB3 SER C   1       3.265  13.102  17.296  1.00  0.00     0.077 H 
ATOM     12  OG  SER C   1       3.755  11.238  17.958  1.00  0.00    -0.398 OA
ATOM     13  HG  SER C   1       4.195  11.754  18.931  1.00  0.00     0.209 HD
ATOM     14  N   THR C   2       2.645  13.462  14.123  1.00  0.00    -0.344 N 
ATOM     15  H   THR C   2       1.939  13.916  14.967  1.00  0.00     0.163 HD
ATOM     16  CA  THR C   2       2.846  14.378  12.987  1.00  0.00     0.113 C 
ATOM     17  HA  THR C   2       3.326  13.642  12.178  1.00  0.00     0.091 H 
ATOM     18  C   THR C   2       3.766  15.521  13.358  1.00  0.00     0.243 C 
ATOM     19  O   THR C   2       3.873  15.884  14.534  1.00  0.00    -0.271 OA
ATOM     20  CB  THR C   2       1.511  14.974  12.535  1.00  0.00     0.060 C 
ATOM     21  HB  THR C   2       1.620  14.679  11.377  1.00  0.00     0.086 H 
ATOM     22  CG2 THR C   2       1.336  16.465  12.235  1.00  0.00    -0.050 C 
ATOM     23 1HG2 THR C   2       0.268  16.581  11.696  1.00  0.00     0.031 H 
ATOM     24 2HG2 THR C   2       1.130  16.988  13.293  1.00  0.00     0.031 H 
ATOM     25 3HG2 THR C   2       1.956  17.181  11.507  1.00  0.00     0.031 H 
ATOM     26  OG1 THR C   2       0.348  14.163  12.513  1.00  0.00    -0.393 OA
ATOM     27  HG1 THR C   2      -0.220  14.221  13.555  1.00  0.00     0.210 HD
ATOM     28  N   PHE C   3       4.439  16.099  12.364  1.00  0.00    -0.346 N 
ATOM     29  H   PHE C   3       4.408  15.616  11.278  1.00  0.00     0.163 HD
ATOM     30  CA  PHE C   3       5.339  17.221  12.598  1.00  0.00     0.088 C 
ATOM     31  HA  PHE C   3       5.769  17.085  13.703  1.00  0.00     0.087 H 
ATOM     32  C   PHE C   3       4.611  18.545  12.404  1.00  0.00     0.221 C 
ATOM     33  O   PHE C   3       3.964  18.760  11.374  1.00  0.00    -0.278 OA
ATOM     34  CB  PHE C   3       6.520  17.175  11.626  1.00  0.00    -0.015 C 
ATOM     35  HB2 PHE C   3       6.500  16.293  10.816  1.00  0.00     0.043 H 
ATOM     36  HB3 PHE C   3       7.392  16.760  12.335  1.00  0.00     0.043 H 
ATOM     37  CG  PHE C   3       7.198  18.143  10.685  1.00  0.00    -0.059 A 
ATOM     38  CD1 PHE C   3       6.506  18.658   9.585  1.00  0.00    -0.088 A 
ATOM     39  HD1 PHE C   3       5.528  18.153   9.131  1.00  0.00     0.078 H 
ATOM     40  CE1 PHE C   3       7.211  19.370   8.604  1.00  0.00    -0.011 A 
ATOM     41  HE1 PHE C   3       7.130  18.917   7.506  1.00  0.00     0.053 H 
ATOM     42  CZ  PHE C   3       8.561  19.692   8.806  1.00  0.00    -0.095 A 
ATOM     43  HZ  PHE C   3       9.216  20.347   8.062  1.00  0.00     0.077 H 
ATOM     44  CE2 PHE C   3       9.252  19.191   9.918  1.00  0.00    -0.085 A 
ATOM     45  HE2 PHE C   3      10.437  19.276   9.953  1.00  0.00     0.083 H 
ATOM     46  CD2 PHE C   3       8.550  18.475  10.897  1.00  0.00    -0.077 A 
ATOM     47  HD2 PHE C   3       9.227  18.347  11.865  1.00  0.00     0.084 H 
ATOM     48  N   ASP C   4       4.713  19.437  13.389  1.00  0.00    -0.247 NA
ATOM     49  H   ASP C   4       5.899  19.427  13.522  1.00  0.00     0.131 HD
ATOM     50  CA  ASP C   4       4.076  20.745  13.306  1.00  0.00     0.085 C 
ATOM     51  HA  ASP C   4       2.951  20.601  12.936  1.00  0.00     0.080 H 
ATOM     52  C   ASP C   4       4.890  21.686  12.426  1.00  0.00     0.236 C 
ATOM     53  O   ASP C   4       6.068  21.431  12.156  1.00  0.00    -0.272 OA
ATOM     54  CB  ASP C   4       3.953  21.373  14.696  1.00  0.00     0.039 C 
ATOM     55  HB2 ASP C   4       3.960  22.555  14.873  1.00  0.00     0.052 H 
ATOM     56  HB3 ASP C   4       2.934  21.018  15.215  1.00  0.00     0.052 H 
ATOM     57  CG  ASP C   4       4.979  20.912  15.745  1.00  0.00     0.174 C 
ATOM     58  OD1 ASP C   4       5.863  20.113  15.377  1.00  0.00    -0.648 OA
ATOM     59  OD2 ASP C   4       4.934  21.450  16.874  1.00  0.00    -0.648 OA
ATOM     60  N   GLU C   5       4.269  22.776  11.977  1.00  0.00    -0.346 N 
ATOM     61  H   GLU C   5       3.199  23.149  12.343  1.00  0.00     0.163 HD
ATOM     62  CA  GLU C   5       4.953  23.758  11.144  1.00  0.00     0.090 C 
ATOM     63  HA  GLU C   5       4.246  24.703  10.974  1.00  0.00     0.087 H 
ATOM     64  C   GLU C   5       5.245  23.184   9.763  1.00  0.00     0.241 C 
ATOM     65  O   GLU C   5       6.332  23.390   9.215  1.00  0.00    -0.271 OA
ATOM     66  CB  GLU C   5       6.281  24.172  11.782  1.00  0.00    -0.029 C 
ATOM     67  HB2 GLU C   5       7.335  23.694  11.481  1.00  0.00     0.037 H 
ATOM     68  HB3 GLU C   5       6.248  24.040  12.972  1.00  0.00     0.037 H 
ATOM     69  CG  GLU C   5       6.549  25.691  11.729  1.00  0.00     0.018 C 
ATOM     70  HG2 GLU C   5       5.652  26.405  12.070  1.00  0.00     0.049 H 
ATOM     71  HG3 GLU C   5       6.875  26.079  10.646  1.00  0.00     0.049 H 
ATOM     72  CD  GLU C   5       7.651  26.251  12.638  1.00  0.00     0.172 C 
ATOM     73  OE1 GLU C   5       8.791  26.384  12.148  1.00  0.00    -0.648 OA
ATOM     74  OE2 GLU C   5       7.271  26.852  13.663  1.00  0.00    -0.648 OA
ATOM     75  N   VAL C   6       4.279  22.463   9.195  1.00  0.00    -0.346 N 
ATOM     76  H   VAL C   6       3.209  22.751   9.624  1.00  0.00     0.163 HD
ATOM     77  CA  VAL C   6       4.438  21.881   7.867  1.00  0.00     0.092 C 
ATOM     78  HA  VAL C   6       5.130  20.919   7.961  1.00  0.00     0.088 H 
ATOM     79  C   VAL C   6       4.879  22.938   6.864  1.00  0.00     0.241 C 
ATOM     80  O   VAL C   6       4.228  23.978   6.721  1.00  0.00    -0.271 OA
ATOM     81  CB  VAL C   6       3.116  21.281   7.382  1.00  0.00    -0.033 C 
ATOM     82  HB  VAL C   6       2.457  22.276   7.425  1.00  0.00     0.042 H 
ATOM     83  CG1 VAL C   6       2.834  21.130   5.884  1.00  0.00    -0.071 C 
ATOM     84 1HG1 VAL C   6       3.785  21.042   5.164  1.00  0.00     0.028 H 
ATOM     85 2HG1 VAL C   6       2.405  20.019   5.714  1.00  0.00     0.028 H 
ATOM     86 3HG1 VAL C   6       1.989  21.745   5.297  1.00  0.00     0.028 H 
ATOM     87  CG2 VAL C   6       2.151  20.570   8.333  1.00  0.00    -0.071 C 
ATOM     88 1HG2 VAL C   6       2.155  19.401   8.060  1.00  0.00     0.028 H 
ATOM     89 2HG2 VAL C   6       2.273  20.550   9.523  1.00  0.00     0.028 H 
ATOM     90 3HG2 VAL C   6       0.981  20.826   8.244  1.00  0.00     0.028 H 
ATOM     91  N   PHE C   7       5.984  22.676   6.167  1.00  0.00    -0.346 N 
ATOM     92  H   PHE C   7       6.807  21.951   6.624  1.00  0.00     0.163 HD
ATOM     93  CA  PHE C   7       6.494  23.602   5.164  1.00  0.00     0.093 C 
ATOM     94  HA  PHE C   7       6.853  24.536   5.816  1.00  0.00     0.088 H 
ATOM     95  C   PHE C   7       5.417  23.934   4.139  1.00  0.00     0.241 C 
ATOM     96  O   PHE C   7       4.716  23.041   3.654  1.00  0.00    -0.271 OA
ATOM     97  CB  PHE C   7       7.687  22.990   4.426  1.00  0.00    -0.014 C 
ATOM     98  HB2 PHE C   7       8.607  23.600   4.893  1.00  0.00     0.043 H 
ATOM     99  HB3 PHE C   7       7.958  21.859   4.712  1.00  0.00     0.043 H 
ATOM    100  CG  PHE C   7       8.037  22.788   2.966  1.00  0.00    -0.056 A 
ATOM    101  CD1 PHE C   7       7.249  21.978   2.138  1.00  0.00    -0.077 A 
ATOM    102  HD1 PHE C   7       6.446  21.171   2.479  1.00  0.00     0.084 H 
ATOM    103  CE1 PHE C   7       7.711  21.632   0.860  1.00  0.00    -0.082 A 
ATOM    104  HE1 PHE C   7       7.284  20.699   0.259  1.00  0.00     0.083 H 
ATOM    105  CZ  PHE C   7       8.892  22.205   0.366  1.00  0.00    -0.083 A 
ATOM    106  HZ  PHE C   7       9.405  21.795  -0.624  1.00  0.00     0.083 H 
ATOM    107  CE2 PHE C   7       9.670  23.040   1.182  1.00  0.00    -0.082 A 
ATOM    108  HE2 PHE C   7      10.728  23.417   0.795  1.00  0.00     0.083 H 
ATOM    109  CD2 PHE C   7       9.203  23.388   2.457  1.00  0.00    -0.077 A 
ATOM    110  HD2 PHE C   7       9.866  24.260   2.918  1.00  0.00     0.084 H 
ATOM    111  N   TYR C   8       5.280  25.216   3.805  1.00  0.00    -0.346 N 
ATOM    112  H   TYR C   8       6.009  26.080   4.174  1.00  0.00     0.163 HD
ATOM    113  CA  TYR C   8       4.279  25.658   2.803  1.00  0.00     0.093 C 
ATOM    114  HA  TYR C   8       3.751  24.748   2.245  1.00  0.00     0.088 H 
ATOM    115  C   TYR C   8       4.968  26.474   1.691  1.00  0.00     0.241 C 
ATOM    116  O   TYR C   8       5.814  27.329   1.973  1.00  0.00    -0.271 OA
ATOM    117  CB  TYR C   8       3.210  26.534   3.461  1.00  0.00    -0.014 C 
ATOM    118  HB2 TYR C   8       3.576  27.673   3.464  1.00  0.00     0.043 H 
ATOM    119  HB3 TYR C   8       2.219  26.601   2.793  1.00  0.00     0.043 H 
ATOM    120  CG  TYR C   8       2.611  26.215   4.801  1.00  0.00    -0.056 A 
ATOM    121  CD1 TYR C   8       1.759  25.114   4.986  1.00  0.00    -0.074 A 
ATOM    122  HD1 TYR C   8       1.023  24.726   4.136  1.00  0.00     0.084 H 
ATOM    123  CE1 TYR C   8       1.382  24.763   6.292  1.00  0.00    -0.051 A 
ATOM    124  HE1 TYR C   8       0.272  24.365   6.450  1.00  0.00     0.087 H 
ATOM    125  CZ  TYR C   8       1.856  25.528   7.379  1.00  0.00     0.065 A 
ATOM    126  OH  TYR C   8       1.604  25.128   8.662  1.00  0.00    -0.361 OA
ATOM    127  HH  TYR C   8       0.833  25.870   9.174  1.00  0.00     0.217 HD
ATOM    128  CE2 TYR C   8       2.595  26.707   7.171  1.00  0.00    -0.051 A 
ATOM    129  HE2 TYR C   8       2.881  27.433   8.067  1.00  0.00     0.087 H 
ATOM    130  CD2 TYR C   8       2.944  27.067   5.865  1.00  0.00    -0.074 A 
ATOM    131  HD2 TYR C   8       3.198  28.228   5.814  1.00  0.00     0.084 H 
ATOM    132  N   LYS C   9       4.546  26.132   0.205  1.00  0.00    -0.345 N 
ATOM    133  H   LYS C   9       3.378  26.299   0.072  1.00  0.00     0.163 HD
ATOM    134  CA  LYS C   9       5.446  26.214  -0.946  1.00  0.00     0.096 C 
ATOM    135  HA  LYS C   9       6.571  26.104  -0.572  1.00  0.00     0.089 H 
ATOM    136  C   LYS C   9       5.417  27.680  -1.532  1.00  0.00     0.196 C 
ATOM    137  O   LYS C   9       4.546  28.498  -1.140  1.00  0.00    -0.646 OA
ATOM    138  CB  LYS C   9       5.010  25.222  -2.159  1.00  0.00    -0.037 C 
ATOM    139  HB2 LYS C   9       5.143  25.921  -3.120  1.00  0.00     0.036 H 
ATOM    140  HB3 LYS C   9       3.834  25.084  -2.002  1.00  0.00     0.036 H 
ATOM    141  CG  LYS C   9       5.775  23.925  -2.416  1.00  0.00    -0.061 C 
ATOM    142  HG2 LYS C   9       5.678  23.220  -1.456  1.00  0.00     0.033 H 
ATOM    143  HG3 LYS C   9       6.930  24.152  -2.621  1.00  0.00     0.033 H 
ATOM    144  CD  LYS C   9       4.961  23.420  -3.601  1.00  0.00    -0.043 C 
ATOM    145  HD2 LYS C   9       4.572  24.123  -4.489  1.00  0.00     0.035 H 
ATOM    146  HD3 LYS C   9       3.905  23.018  -3.198  1.00  0.00     0.035 H 
ATOM    147  CE  LYS C   9       5.561  22.138  -4.138  1.00  0.00     0.080 C 
ATOM    148  HE2 LYS C   9       4.737  21.363  -4.538  1.00  0.00     0.075 H 
ATOM    149  HE3 LYS C   9       6.152  21.439  -3.370  1.00  0.00     0.075 H 
ATOM    150  NZ  LYS C   9       6.369  22.530  -5.302  1.00  0.00    -0.079 N 
ATOM    151  HZ1 LYS C   9       6.164  21.858  -6.276  1.00  0.00     0.274 HD
ATOM    152  HZ2 LYS C   9       6.422  23.616  -5.807  1.00  0.00     0.274 HD
ATOM    153  HZ3 LYS C   9       7.535  22.321  -5.101  1.00  0.00     0.274 HD
ATOM    154  OXT LYS C   9       6.300  27.963  -2.370  1.00  0.00    -0.646 OA
ENDROOT
TORSDOF 43
