REMARK  0 active torsions:
REMARK  status: ('A' for Active; 'I' for Inactive)
REMARK       I    between atoms: N_1  and  CA_5 
REMARK       I    between atoms: CA_5  and  CB_9 
REMARK       I    between atoms: CA_5  and  C_7 
REMARK       I    between atoms: C_7  and  N_14 
REMARK       I    between atoms: CB_9  and  OG_12 
REMARK       I    between atoms: N_14  and  CA_16 
REMARK       I    between atoms: CA_16  and  CB_20 
REMARK       I    between atoms: CA_16  and  C_18 
REMARK       I    between atoms: C_18  and  N_28 
REMARK       I    between atoms: CB_20  and  OG1_26 
REMARK       I    between atoms: CB_20  and  CG2_22 
REMARK       I    between atoms: N_28  and  CA_30 
REMARK       I    between atoms: CA_30  and  CB_34 
REMARK       I    between atoms: CA_30  and  C_32 
REMARK       I    between atoms: C_32  and  N_48 
REMARK       I    between atoms: CB_34  and  CG_37 
REMARK       I    between atoms: N_48  and  CA_50 
REMARK       I    between atoms: CA_50  and  C_52 
REMARK       I    between atoms: CA_50  and  CB_54 
REMARK       I    between atoms: C_52  and  N_60 
REMARK       I    between atoms: CB_54  and  CG_57 
REMARK       I    between atoms: N_60  and  CA_62 
REMARK       I    between atoms: CA_62  and  C_64 
REMARK       I    between atoms: CA_62  and  CB_66 
REMARK       I    between atoms: C_64  and  N_75 
REMARK       I    between atoms: CB_66  and  CG_69 
REMARK       I    between atoms: CG_69  and  CD_72 
REMARK       I    between atoms: N_75  and  CA_77 
REMARK       I    between atoms: CA_77  and  C_79 
REMARK       I    between atoms: CA_77  and  CB_81 
REMARK       I    between atoms: C_79  and  N_91 
REMARK       I    between atoms: CB_81  and  CG1_83 
REMARK       I    between atoms: CB_81  and  CG2_87 
REMARK       I    between atoms: N_91  and  CA_93 
REMARK       I    between atoms: CA_93  and  CB_97 
REMARK       I    between atoms: CA_93  and  C_95 
REMARK       I    between atoms: C_95  and  N_111 
REMARK       I    between atoms: CB_97  and  CG_100 
REMARK       I    between atoms: N_111  and  CA_113 
REMARK       I    between atoms: CA_113  and  CB_117 
REMARK       I    between atoms: CA_113  and  C_115 
REMARK       I    between atoms: C_115  and  N_132 
REMARK       I    between atoms: CB_117  and  CG_120 
REMARK       I    between atoms: CZ_125  and  OH_126 
REMARK       I    between atoms: N_132  and  CA_134 
REMARK       I    between atoms: CA_134  and  CB_138 
REMARK       I    between atoms: CA_134  and  C_136 
REMARK       I    between atoms: CB_138  and  CG_141 
REMARK       I    between atoms: CG_141  and  CD_144 
REMARK       I    between atoms: CD_144  and  CE_147 
REMARK       I    between atoms: CE_147  and  NZ_150 
ROOT
ATOM      1  N   SER C   1       3.569  10.245  15.174  1.00  0.00    -0.064 N 
ATOM      2  H   SER C   1       4.373  10.095  14.298  1.00  0.00     0.275 HD
ATOM      3  H2  SER C   1       4.012   9.544  16.038  1.00  0.00     0.275 HD
ATOM      4  H3  SER C   1       2.625   9.629  14.765  1.00  0.00     0.275 HD
ATOM      5  CA  SER C   1       3.063  11.615  15.582  1.00  0.00     0.195 C 
ATOM      6  HA  SER C   1       1.880  11.674  15.710  1.00  0.00     0.102 H 
ATOM      7  C   SER C   1       3.501  12.536  14.439  1.00  0.00     0.251 C 
ATOM      8  O   SER C   1       4.647  12.524  13.986  1.00  0.00    -0.271 OA
ATOM      9  CB  SER C   1       3.799  12.126  16.857  1.00  0.00     0.051 C 
ATOM     10  HB2 SER C   1       4.981  12.276  16.756  1.00  0.00     0.077 H 
ATOM     11  HB3 SER C   1       3.327  13.161  17.214  1.00  0.00     0.077 H 
ATOM     12  OG  SER C   1       3.757  11.237  17.957  1.00  0.00    -0.398 OA
ATOM     13  HG  SER C   1       3.654  11.837  18.974  1.00  0.00     0.209 HD
ATOM     14  N   THR C   2       3.281  13.827  13.404  1.00  0.00    -0.344 N 
ATOM     15  H   THR C   2       3.330  13.266  12.356  1.00  0.00     0.163 HD
ATOM     16  CA  THR C   2       2.682  15.169  13.297  1.00  0.00     0.113 C 
ATOM     17  HA  THR C   2       1.671  14.828  12.761  1.00  0.00     0.091 H 
ATOM     18  C   THR C   2       3.542  16.091  12.460  1.00  0.00     0.243 C 
ATOM     19  O   THR C   2       4.757  15.894  12.357  1.00  0.00    -0.271 OA
ATOM     20  CB  THR C   2       2.525  15.799  14.683  1.00  0.00     0.060 C 
ATOM     21  HB  THR C   2       1.364  16.057  14.520  1.00  0.00     0.086 H 
ATOM     22  CG2 THR C   2       2.925  17.251  14.959  1.00  0.00    -0.050 C 
ATOM     23 1HG2 THR C   2       2.080  18.100  14.914  1.00  0.00     0.031 H 
ATOM     24 2HG2 THR C   2       3.901  17.695  14.426  1.00  0.00     0.031 H 
ATOM     25 3HG2 THR C   2       3.327  17.384  16.083  1.00  0.00     0.031 H 
ATOM     26  OG1 THR C   2       2.094  15.023  15.786  1.00  0.00    -0.393 OA
ATOM     27  HG1 THR C   2       2.174  15.631  16.801  1.00  0.00     0.210 HD
ATOM     28  N   PHE C   3       2.925  17.104  11.855  1.00  0.00    -0.346 N 
ATOM     29  H   PHE C   3       1.747  17.073  11.699  1.00  0.00     0.163 HD
ATOM     30  CA  PHE C   3       3.654  18.067  11.039  1.00  0.00     0.093 C 
ATOM     31  HA  PHE C   3       4.693  18.285  11.585  1.00  0.00     0.088 H 
ATOM     32  C   PHE C   3       2.945  19.416  11.034  1.00  0.00     0.241 C 
ATOM     33  O   PHE C   3       1.735  19.490  11.271  1.00  0.00    -0.271 OA
ATOM     34  CB  PHE C   3       3.760  17.576   9.594  1.00  0.00    -0.014 C 
ATOM     35  HB2 PHE C   3       3.175  16.551   9.392  1.00  0.00     0.043 H 
ATOM     36  HB3 PHE C   3       4.902  17.231   9.495  1.00  0.00     0.043 H 
ATOM     37  CG  PHE C   3       3.322  18.253   8.308  1.00  0.00    -0.056 A 
ATOM     38  CD1 PHE C   3       1.990  18.642   8.087  1.00  0.00    -0.077 A 
ATOM     39  HD1 PHE C   3       1.031  18.235   8.659  1.00  0.00     0.084 H 
ATOM     40  CE1 PHE C   3       1.593  19.127   6.831  1.00  0.00    -0.082 A 
ATOM     41  HE1 PHE C   3       0.459  19.039   6.484  1.00  0.00     0.083 H 
ATOM     42  CZ  PHE C   3       2.542  19.297   5.812  1.00  0.00    -0.083 A 
ATOM     43  HZ  PHE C   3       2.194  19.592   4.715  1.00  0.00     0.083 H 
ATOM     44  CE2 PHE C   3       3.877  18.924   6.031  1.00  0.00    -0.082 A 
ATOM     45  HE2 PHE C   3       4.504  18.639   5.063  1.00  0.00     0.083 H 
ATOM     46  CD2 PHE C   3       4.273  18.459   7.291  1.00  0.00    -0.077 A 
ATOM     47  HD2 PHE C   3       5.421  18.152   7.288  1.00  0.00     0.084 H 
ATOM     48  N   ASP C   4       3.691  20.486  10.764  1.00  0.00    -0.345 N 
ATOM     49  H   ASP C   4       4.474  20.200   9.916  1.00  0.00     0.163 HD
ATOM     50  CA  ASP C   4       3.118  21.826  10.713  1.00  0.00     0.098 C 
ATOM     51  HA  ASP C   4       2.136  21.846  11.392  1.00  0.00     0.088 H 
ATOM     52  C   ASP C   4       2.839  22.238   9.273  1.00  0.00     0.241 C 
ATOM     53  O   ASP C   4       3.362  21.629   8.334  1.00  0.00    -0.271 OA
ATOM     54  CB  ASP C   4       4.080  22.846  11.326  1.00  0.00     0.043 C 
ATOM     55  HB2 ASP C   4       3.970  22.611  12.498  1.00  0.00     0.052 H 
ATOM     56  HB3 ASP C   4       3.970  24.030  11.407  1.00  0.00     0.052 H 
ATOM     57  CG  ASP C   4       5.572  22.470  11.294  1.00  0.00     0.175 C 
ATOM     58  OD1 ASP C   4       5.886  21.406  10.735  1.00  0.00    -0.648 OA
ATOM     59  OD2 ASP C   4       6.395  23.321  11.743  1.00  0.00    -0.648 OA
ATOM     60  N   GLU C   5       2.017  23.270   9.091  1.00  0.00    -0.346 N 
ATOM     61  H   GLU C   5       1.325  23.633   9.989  1.00  0.00     0.163 HD
ATOM     62  CA  GLU C   5       1.692  23.765   7.760  1.00  0.00     0.090 C 
ATOM     63  HA  GLU C   5       1.982  23.037   6.862  1.00  0.00     0.087 H 
ATOM     64  C   GLU C   5       2.486  25.027   7.445  1.00  0.00     0.241 C 
ATOM     65  O   GLU C   5       2.247  25.680   6.424  1.00  0.00    -0.271 OA
ATOM     66  CB  GLU C   5       0.202  24.098   7.658  1.00  0.00    -0.029 C 
ATOM     67  HB2 GLU C   5      -0.088  25.245   7.825  1.00  0.00     0.037 H 
ATOM     68  HB3 GLU C   5      -0.451  23.520   8.477  1.00  0.00     0.037 H 
ATOM     69  CG  GLU C   5      -0.562  23.616   6.406  1.00  0.00     0.018 C 
ATOM     70  HG2 GLU C   5      -0.448  22.454   6.152  1.00  0.00     0.049 H 
ATOM     71  HG3 GLU C   5      -0.297  24.177   5.385  1.00  0.00     0.049 H 
ATOM     72  CD  GLU C   5      -2.084  23.754   6.461  1.00  0.00     0.172 C 
ATOM     73  OE1 GLU C   5      -2.601  24.766   5.927  1.00  0.00    -0.648 OA
ATOM     74  OE2 GLU C   5      -2.735  22.725   6.743  1.00  0.00    -0.648 OA
ATOM     75  N   VAL C   6       3.430  25.376   8.317  1.00  0.00    -0.346 N 
ATOM     76  H   VAL C   6       3.342  25.048   9.449  1.00  0.00     0.163 HD
ATOM     77  CA  VAL C   6       4.266  26.554   8.111  1.00  0.00     0.092 C 
ATOM     78  HA  VAL C   6       3.678  27.538   7.792  1.00  0.00     0.088 H 
ATOM     79  C   VAL C   6       5.252  26.323   6.973  1.00  0.00     0.241 C 
ATOM     80  O   VAL C   6       6.094  27.180   6.689  1.00  0.00    -0.271 OA
ATOM     81  CB  VAL C   6       5.062  26.877   9.377  1.00  0.00    -0.033 C 
ATOM     82  HB  VAL C   6       5.656  25.904   9.731  1.00  0.00     0.042 H 
ATOM     83  CG1 VAL C   6       6.255  27.843   9.339  1.00  0.00    -0.071 C 
ATOM     84 1HG1 VAL C   6       5.992  28.999   9.522  1.00  0.00     0.028 H 
ATOM     85 2HG1 VAL C   6       7.080  27.973   8.478  1.00  0.00     0.028 H 
ATOM     86 3HG1 VAL C   6       7.011  27.593  10.240  1.00  0.00     0.028 H 
ATOM     87  CG2 VAL C   6       4.070  27.377  10.416  1.00  0.00    -0.071 C 
ATOM     88 1HG2 VAL C   6       3.765  28.530  10.284  1.00  0.00     0.028 H 
ATOM     89 2HG2 VAL C   6       2.995  26.960  10.746  1.00  0.00     0.028 H 
ATOM     90 3HG2 VAL C   6       4.612  27.360  11.488  1.00  0.00     0.028 H 
ATOM     91  N   PHE C   7       5.150  25.166   6.321  1.00  0.00    -0.346 N 
ATOM     92  H   PHE C   7       4.944  24.178   6.946  1.00  0.00     0.163 HD
ATOM     93  CA  PHE C   7       6.024  24.839   5.201  1.00  0.00     0.088 C 
ATOM     94  HA  PHE C   7       7.059  25.432   5.199  1.00  0.00     0.087 H 
ATOM     95  C   PHE C   7       5.329  25.119   3.874  1.00  0.00     0.221 C 
ATOM     96  O   PHE C   7       5.433  24.327   2.932  1.00  0.00    -0.278 OA
ATOM     97  CB  PHE C   7       6.411  23.359   5.236  1.00  0.00    -0.014 C 
ATOM     98  HB2 PHE C   7       6.994  23.210   6.270  1.00  0.00     0.043 H 
ATOM     99  HB3 PHE C   7       5.466  22.664   5.016  1.00  0.00     0.043 H 
ATOM    100  CG  PHE C   7       7.466  22.613   4.446  1.00  0.00    -0.056 A 
ATOM    101  CD1 PHE C   7       8.245  23.213   3.451  1.00  0.00    -0.077 A 
ATOM    102  HD1 PHE C   7       8.724  24.300   3.463  1.00  0.00     0.084 H 
ATOM    103  CE1 PHE C   7       9.049  22.409   2.624  1.00  0.00    -0.082 A 
ATOM    104  HE1 PHE C   7       9.688  22.846   1.723  1.00  0.00     0.083 H 
ATOM    105  CZ  PHE C   7       9.177  21.040   2.877  1.00  0.00    -0.083 A 
ATOM    106  HZ  PHE C   7       9.898  20.373   2.210  1.00  0.00     0.083 H 
ATOM    107  CE2 PHE C   7       8.469  20.444   3.943  1.00  0.00    -0.082 A 
ATOM    108  HE2 PHE C   7       8.623  19.279   4.111  1.00  0.00     0.083 H 
ATOM    109  CD2 PHE C   7       7.640  21.236   4.726  1.00  0.00    -0.077 A 
ATOM    110  HD2 PHE C   7       7.530  20.717   5.789  1.00  0.00     0.084 H 
ATOM    111  N   TYR C   8       4.620  26.244   3.793  1.00  0.00    -0.247 NA
ATOM    112  H   TYR C   8       5.227  27.186   4.190  1.00  0.00     0.131 HD
ATOM    113  CA  TYR C   8       3.916  26.633   2.546  1.00  0.00     0.080 C 
ATOM    114  HA  TYR C   8       3.026  25.843   2.478  1.00  0.00     0.079 H 
ATOM    115  C   TYR C   8       4.909  26.665   1.367  1.00  0.00     0.236 C 
ATOM    116  O   TYR C   8       6.025  27.178   1.500  1.00  0.00    -0.272 OA
ATOM    117  CB  TYR C   8       3.288  28.020   2.694  1.00  0.00    -0.018 C 
ATOM    118  HB2 TYR C   8       4.036  28.894   2.355  1.00  0.00     0.043 H 
ATOM    119  HB3 TYR C   8       2.439  28.186   1.865  1.00  0.00     0.043 H 
ATOM    120  CG  TYR C   8       2.577  28.456   3.942  1.00  0.00    -0.056 A 
ATOM    121  CD1 TYR C   8       1.348  27.897   4.329  1.00  0.00    -0.074 A 
ATOM    122  HD1 TYR C   8       0.497  27.488   3.607  1.00  0.00     0.084 H 
ATOM    123  CE1 TYR C   8       0.826  28.217   5.599  1.00  0.00    -0.051 A 
ATOM    124  HE1 TYR C   8      -0.346  28.213   5.794  1.00  0.00     0.087 H 
ATOM    125  CZ  TYR C   8       1.544  29.080   6.440  1.00  0.00     0.065 A 
ATOM    126  OH  TYR C   8       1.123  29.292   7.731  1.00  0.00    -0.361 OA
ATOM    127  HH  TYR C   8       1.022  30.455   7.948  1.00  0.00     0.217 HD
ATOM    128  CE2 TYR C   8       2.701  29.741   5.997  1.00  0.00    -0.051 A 
ATOM    129  HE2 TYR C   8       3.093  30.762   6.463  1.00  0.00     0.087 H 
ATOM    130  CD2 TYR C   8       3.199  29.445   4.720  1.00  0.00    -0.074 A 
ATOM    131  HD2 TYR C   8       3.959  30.275   4.338  1.00  0.00     0.084 H 
ATOM    132  N   LYS C   9       4.546  26.132   0.205  1.00  0.00    -0.345 N 
ATOM    133  H   LYS C   9       3.526  25.528   0.125  1.00  0.00     0.163 HD
ATOM    134  CA  LYS C   9       5.446  26.214  -0.946  1.00  0.00     0.096 C 
ATOM    135  HA  LYS C   9       6.595  26.044  -0.680  1.00  0.00     0.089 H 
ATOM    136  C   LYS C   9       5.417  27.680  -1.532  1.00  0.00     0.196 C 
ATOM    137  O   LYS C   9       4.546  28.498  -1.140  1.00  0.00    -0.646 OA
ATOM    138  CB  LYS C   9       5.010  25.222  -2.159  1.00  0.00    -0.037 C 
ATOM    139  HB2 LYS C   9       5.232  25.918  -3.105  1.00  0.00     0.036 H 
ATOM    140  HB3 LYS C   9       3.820  25.167  -2.081  1.00  0.00     0.036 H 
ATOM    141  CG  LYS C   9       5.773  23.926  -2.410  1.00  0.00    -0.061 C 
ATOM    142  HG2 LYS C   9       5.718  23.209  -1.455  1.00  0.00     0.033 H 
ATOM    143  HG3 LYS C   9       6.943  24.101  -2.581  1.00  0.00     0.033 H 
ATOM    144  CD  LYS C   9       4.968  23.421  -3.597  1.00  0.00    -0.043 C 
ATOM    145  HD2 LYS C   9       3.932  22.995  -3.169  1.00  0.00     0.035 H 
ATOM    146  HD3 LYS C   9       4.629  24.105  -4.517  1.00  0.00     0.035 H 
ATOM    147  CE  LYS C   9       5.562  22.135  -4.135  1.00  0.00     0.080 C 
ATOM    148  HE2 LYS C   9       6.193  21.436  -3.396  1.00  0.00     0.075 H 
ATOM    149  HE3 LYS C   9       4.733  21.345  -4.492  1.00  0.00     0.075 H 
ATOM    150  NZ  LYS C   9       6.367  22.532  -5.298  1.00  0.00    -0.079 N 
ATOM    151  HZ1 LYS C   9       5.757  22.504  -6.330  1.00  0.00     0.274 HD
ATOM    152  HZ2 LYS C   9       7.225  21.717  -5.508  1.00  0.00     0.274 HD
ATOM    153  HZ3 LYS C   9       7.000  23.548  -5.373  1.00  0.00     0.274 HD
ATOM    154  OXT LYS C   9       6.325  27.974  -2.416  1.00  0.00    -0.646 OA
ENDROOT
TORSDOF 43
