REMARK  0 active torsions:
REMARK  status: ('A' for Active; 'I' for Inactive)
REMARK       I    between atoms: N_1  and  CA_5 
REMARK       I    between atoms: CA_5  and  C_7 
REMARK       I    between atoms: CA_5  and  CB_9 
REMARK       I    between atoms: C_7  and  CA_16 
REMARK       I    between atoms: CB_9  and  OG_12 
REMARK       I    between atoms: N_14  and  CA_16 
REMARK       I    between atoms: CB_20  and  CG2_22 
REMARK       I    between atoms: CA_30  and  CB_34 
REMARK       I    between atoms: CB_34  and  CG_37 
REMARK       I    between atoms: CA_50  and  C_52 
REMARK       I    between atoms: C_52  and  N_60 
REMARK       I    between atoms: N_60  and  CA_62 
REMARK       I    between atoms: CA_62  and  CB_66 
REMARK       I    between atoms: CA_62  and  C_64 
REMARK       I    between atoms: C_64  and  N_75 
REMARK       I    between atoms: CB_66  and  CG_69 
REMARK       I    between atoms: CG_69  and  CD_72 
REMARK       I    between atoms: N_75  and  CA_77 
REMARK       I    between atoms: CA_77  and  CB_81 
REMARK       I    between atoms: CA_77  and  C_79 
REMARK       I    between atoms: C_79  and  N_91 
REMARK       I    between atoms: CB_81  and  CG1_83 
REMARK       I    between atoms: CB_81  and  CG2_87 
REMARK       I    between atoms: N_91  and  CA_93 
REMARK       I    between atoms: CA_93  and  C_95 
REMARK       I    between atoms: CA_93  and  CB_97 
REMARK       I    between atoms: C_95  and  N_111 
REMARK       I    between atoms: CB_97  and  CG_100 
REMARK       I    between atoms: N_111  and  CA_113 
REMARK       I    between atoms: CA_113  and  CB_117 
REMARK       I    between atoms: CA_113  and  C_115 
REMARK       I    between atoms: C_115  and  N_132 
REMARK       I    between atoms: CB_117  and  CG_120 
REMARK       I    between atoms: CZ_125  and  OH_126 
REMARK       I    between atoms: N_132  and  CA_134 
REMARK       I    between atoms: CA_134  and  CB_138 
REMARK       I    between atoms: CA_134  and  C_136 
REMARK       I    between atoms: CB_138  and  CG_141 
REMARK       I    between atoms: CG_141  and  CD_144 
REMARK       I    between atoms: CD_144  and  CE_147 
REMARK       I    between atoms: CE_147  and  NZ_150 
ROOT
ATOM      1  N   SER C   1       3.569  10.245  15.174  1.00  0.00    -0.066 N 
ATOM      2  H   SER C   1       4.078   9.910  14.140  1.00  0.00     0.275 HD
ATOM      3  H2  SER C   1       4.322   9.583  15.835  1.00  0.00     0.275 HD
ATOM      4  H3  SER C   1       2.607   9.533  15.202  1.00  0.00     0.275 HD
ATOM      5  CA  SER C   1       3.063  11.615  15.582  1.00  0.00     0.180 C 
ATOM      6  HA  SER C   1       1.882  11.634  15.751  1.00  0.00     0.099 H 
ATOM      7  C   SER C   1       3.501  12.536  14.439  1.00  0.00     0.199 C 
ATOM      8  O   SER C   1       4.647  12.524  13.986  1.00  0.00    -0.292 OA
ATOM      9  CB  SER C   1       3.799  12.126  16.857  1.00  0.00     0.050 C 
ATOM     10  HB2 SER C   1       2.935  12.510  17.597  1.00  0.00     0.077 H 
ATOM     11  HB3 SER C   1       4.601  13.004  16.978  1.00  0.00     0.077 H 
ATOM     12  OG  SER C   1       4.256  11.032  17.637  1.00  0.00    -0.398 OA
ATOM     13  HG  SER C   1       5.387  11.177  17.968  1.00  0.00     0.209 HD
ATOM     14  N   THR C   2       1.947  13.544  13.688  1.00  0.00    -0.480 NA
ATOM     15  H   THR C   2       0.777  13.690  13.560  1.00  0.00     0.259 HD
ATOM     16  CA  THR C   2       3.408  13.549  13.498  1.00  0.00     0.159 C 
ATOM     17  HA  THR C   2       3.034  13.964  14.590  1.00  0.00     0.116 H 
ATOM     18  C   THR C   2       4.018  14.857  13.953  1.00  0.00     0.257 C 
ATOM     19  O   THR C   2       3.344  15.892  13.966  1.00  0.00    -0.270 OA
ATOM     20  CB  THR C   2       3.758  13.353  12.021  1.00  0.00    -0.009 C 
ATOM     21  HB  THR C   2       2.891  13.899  11.404  1.00  0.00     0.046 H 
ATOM     22  CG2 THR C   2       3.865  11.885  11.594  1.00  0.00    -0.069 C 
ATOM     23 1HG2 THR C   2       3.557  11.880  10.431  1.00  0.00     0.028 H 
ATOM     24 2HG2 THR C   2       4.864  11.226  11.526  1.00  0.00     0.028 H 
ATOM     25 3HG2 THR C   2       3.009  11.135  11.974  1.00  0.00     0.028 H 
ATOM     26  OG1 THR C   2       4.935  14.012  11.635  1.00  0.00     0.000 OA
ATOM     27  HG1 THR C   2       5.891  13.416  12.030  1.00  0.00     0.000 HD
ATOM     28  N   PHE C   3       5.295  14.826  14.330  1.00  0.00    -0.345 N 
ATOM     29  H   PHE C   3       6.117  13.970  14.401  1.00  0.00     0.163 HD
ATOM     30  CA  PHE C   3       5.994  16.027  14.768  1.00  0.00     0.088 C 
ATOM     31  HA  PHE C   3       5.250  16.813  15.267  1.00  0.00     0.087 H 
ATOM     32  C   PHE C   3       6.636  16.740  13.585  1.00  0.00     0.221 C 
ATOM     33  O   PHE C   3       7.586  17.510  13.757  1.00  0.00    -0.278 OA
ATOM     34  CB  PHE C   3       7.095  15.674  15.770  1.00  0.00    -0.014 C 
ATOM     35  HB2 PHE C   3       6.736  15.018  16.702  1.00  0.00     0.043 H 
ATOM     36  HB3 PHE C   3       8.021  15.128  15.247  1.00  0.00     0.043 H 
ATOM     37  CG  PHE C   3       7.726  16.775  16.623  1.00  0.00    -0.056 A 
ATOM     38  CD1 PHE C   3       7.031  17.973  16.895  1.00  0.00    -0.077 A 
ATOM     39  HD1 PHE C   3       5.969  18.082  17.419  1.00  0.00     0.084 H 
ATOM     40  CE1 PHE C   3       7.778  19.112  17.218  1.00  0.00    -0.082 A 
ATOM     41  HE1 PHE C   3       7.468  20.222  16.931  1.00  0.00     0.083 H 
ATOM     42  CZ  PHE C   3       8.945  18.850  17.947  1.00  0.00    -0.083 A 
ATOM     43  HZ  PHE C   3       9.377  19.716  18.636  1.00  0.00     0.083 H 
ATOM     44  CE2 PHE C   3       9.624  17.621  17.891  1.00  0.00    -0.082 A 
ATOM     45  HE2 PHE C   3      10.646  17.494  18.483  1.00  0.00     0.083 H 
ATOM     46  CD2 PHE C   3       9.021  16.591  17.150  1.00  0.00    -0.077 A 
ATOM     47  HD2 PHE C   3       9.721  15.631  17.121  1.00  0.00     0.084 H 
ATOM     48  N   ASP C   4       6.122  16.490  12.382  1.00  0.00    -0.247 NA
ATOM     49  H   ASP C   4       4.940  16.580  12.336  1.00  0.00     0.131 HD
ATOM     50  CA  ASP C   4       6.642  17.129  11.179  1.00  0.00     0.085 C 
ATOM     51  HA  ASP C   4       7.769  17.457  11.395  1.00  0.00     0.079 H 
ATOM     52  C   ASP C   4       5.778  18.321  10.785  1.00  0.00     0.236 C 
ATOM     53  O   ASP C   4       4.561  18.309  10.994  1.00  0.00    -0.272 OA
ATOM     54  CB  ASP C   4       6.660  16.142  10.010  1.00  0.00     0.041 C 
ATOM     55  HB2 ASP C   4       6.350  16.728   9.016  1.00  0.00     0.051 H 
ATOM     56  HB3 ASP C   4       7.813  15.830   9.907  1.00  0.00     0.051 H 
ATOM     57  CG  ASP C   4       6.129  14.795   9.636  1.00  0.00     0.291 C 
ATOM     58  OD1 ASP C   4       5.394  14.228  10.441  1.00  0.00    -0.150 OA
ATOM     59  OD2 ASP C   4       6.476  14.470   8.474  1.00  0.00    -0.263 OA
ATOM     60  N   GLU C   5       6.400  19.352  10.216  1.00  0.00    -0.346 N 
ATOM     61  H   GLU C   5       7.561  19.349   9.955  1.00  0.00     0.163 HD
ATOM     62  CA  GLU C   5       5.674  20.538   9.780  1.00  0.00     0.090 C 
ATOM     63  HA  GLU C   5       4.499  20.360   9.878  1.00  0.00     0.087 H 
ATOM     64  C   GLU C   5       6.049  20.905   8.349  1.00  0.00     0.241 C 
ATOM     65  O   GLU C   5       7.225  21.136   8.049  1.00  0.00    -0.271 OA
ATOM     66  CB  GLU C   5       6.000  21.730  10.682  1.00  0.00    -0.029 C 
ATOM     67  HB2 GLU C   5       5.475  21.322  11.677  1.00  0.00     0.037 H 
ATOM     68  HB3 GLU C   5       7.143  21.684  11.045  1.00  0.00     0.037 H 
ATOM     69  CG  GLU C   5       6.104  23.158  10.157  1.00  0.00     0.018 C 
ATOM     70  HG2 GLU C   5       7.176  23.669  10.022  1.00  0.00     0.049 H 
ATOM     71  HG3 GLU C   5       5.381  23.568   9.302  1.00  0.00     0.049 H 
ATOM     72  CD  GLU C   5       5.444  23.844  11.340  1.00  0.00     0.172 C 
ATOM     73  OE1 GLU C   5       5.576  25.064  11.541  1.00  0.00    -0.648 OA
ATOM     74  OE2 GLU C   5       4.708  23.079  11.994  1.00  0.00    -0.648 OA
ATOM     75  N   VAL C   6       5.057  20.959   7.463  1.00  0.00    -0.346 N 
ATOM     76  H   VAL C   6       4.016  21.331   7.897  1.00  0.00     0.163 HD
ATOM     77  CA  VAL C   6       5.294  21.319   6.068  1.00  0.00     0.092 C 
ATOM     78  HA  VAL C   6       6.378  20.898   5.807  1.00  0.00     0.088 H 
ATOM     79  C   VAL C   6       5.120  22.818   5.861  1.00  0.00     0.241 C 
ATOM     80  O   VAL C   6       4.038  23.363   6.099  1.00  0.00    -0.271 OA
ATOM     81  CB  VAL C   6       4.309  20.591   5.151  1.00  0.00    -0.033 C 
ATOM     82  HB  VAL C   6       4.000  21.366   4.295  1.00  0.00     0.042 H 
ATOM     83  CG1 VAL C   6       4.958  19.509   4.279  1.00  0.00    -0.071 C 
ATOM     84 1HG1 VAL C   6       5.681  19.890   3.400  1.00  0.00     0.028 H 
ATOM     85 2HG1 VAL C   6       5.596  18.668   4.847  1.00  0.00     0.028 H 
ATOM     86 3HG1 VAL C   6       4.170  18.859   3.648  1.00  0.00     0.028 H 
ATOM     87  CG2 VAL C   6       2.968  20.161   5.743  1.00  0.00    -0.071 C 
ATOM     88 1HG2 VAL C   6       2.156  20.234   4.861  1.00  0.00     0.028 H 
ATOM     89 2HG2 VAL C   6       2.291  20.625   6.616  1.00  0.00     0.028 H 
ATOM     90 3HG2 VAL C   6       2.994  19.006   6.064  1.00  0.00     0.028 H 
ATOM     91  N   PHE C   7       6.184  23.486   5.418  1.00  0.00    -0.346 N 
ATOM     92  H   PHE C   7       7.243  22.953   5.327  1.00  0.00     0.163 HD
ATOM     93  CA  PHE C   7       6.136  24.920   5.163  1.00  0.00     0.088 C 
ATOM     94  HA  PHE C   7       5.603  25.417   6.108  1.00  0.00     0.087 H 
ATOM     95  C   PHE C   7       5.457  25.208   3.830  1.00  0.00     0.221 C 
ATOM     96  O   PHE C   7       5.687  24.502   2.843  1.00  0.00    -0.278 OA
ATOM     97  CB  PHE C   7       7.549  25.506   5.119  1.00  0.00    -0.017 C 
ATOM     98  HB2 PHE C   7       7.937  25.569   6.249  1.00  0.00     0.043 H 
ATOM     99  HB3 PHE C   7       8.336  24.808   4.548  1.00  0.00     0.043 H 
ATOM    100  CG  PHE C   7       8.109  26.785   4.491  1.00  0.00    -0.069 A 
ATOM    101  CD1 PHE C   7       8.035  27.008   3.115  1.00  0.00    -0.005 A 
ATOM    102  HD1 PHE C   7       7.270  27.915   3.025  1.00  0.00     0.054 H 
ATOM    103  CE1 PHE C   7       9.097  27.698   2.522  1.00  0.00    -0.094 A 
ATOM    104  HE1 PHE C   7       9.250  28.039   1.395  1.00  0.00     0.077 H 
ATOM    105  CZ  PHE C   7      10.171  27.977   3.394  1.00  0.00    -0.086 A 
ATOM    106  HZ  PHE C   7      11.279  27.961   2.968  1.00  0.00     0.083 H 
ATOM    107  CE2 PHE C   7       9.985  28.244   4.762  1.00  0.00    -0.083 A 
ATOM    108  HE2 PHE C   7      10.822  28.792   5.401  1.00  0.00     0.083 H 
ATOM    109  CD2 PHE C   7       8.780  27.754   5.280  1.00  0.00    -0.080 A 
ATOM    110  HD2 PHE C   7       8.410  28.320   6.257  1.00  0.00     0.083 H 
ATOM    111  N   TYR C   8       4.620  26.244   3.793  1.00  0.00    -0.247 NA
ATOM    112  H   TYR C   8       5.177  27.126   4.356  1.00  0.00     0.131 HD
ATOM    113  CA  TYR C   8       3.916  26.633   2.546  1.00  0.00     0.080 C 
ATOM    114  HA  TYR C   8       3.055  25.810   2.479  1.00  0.00     0.079 H 
ATOM    115  C   TYR C   8       4.909  26.665   1.367  1.00  0.00     0.236 C 
ATOM    116  O   TYR C   8       6.025  27.178   1.500  1.00  0.00    -0.272 OA
ATOM    117  CB  TYR C   8       3.288  28.020   2.694  1.00  0.00    -0.021 C 
ATOM    118  HB2 TYR C   8       3.917  29.034   2.621  1.00  0.00     0.042 H 
ATOM    119  HB3 TYR C   8       2.499  28.196   1.812  1.00  0.00     0.042 H 
ATOM    120  CG  TYR C   8       2.501  28.022   3.996  1.00  0.00    -0.069 A 
ATOM    121  CD1 TYR C   8       1.106  27.977   4.107  1.00  0.00    -0.077 A 
ATOM    122  HD1 TYR C   8       0.286  28.022   3.249  1.00  0.00     0.084 H 
ATOM    123  CE1 TYR C   8       0.537  28.123   5.378  1.00  0.00    -0.051 A 
ATOM    124  HE1 TYR C   8      -0.536  27.697   5.658  1.00  0.00     0.087 H 
ATOM    125  CZ  TYR C   8       1.292  28.756   6.385  1.00  0.00     0.062 A 
ATOM    126  OH  TYR C   8       0.706  29.557   7.323  1.00  0.00    -0.361 OA
ATOM    127  HH  TYR C   8       1.258  29.474   8.368  1.00  0.00     0.217 HD
ATOM    128  CE2 TYR C   8       2.671  28.552   6.380  1.00  0.00    -0.062 A 
ATOM    129  HE2 TYR C   8       3.338  28.666   7.357  1.00  0.00     0.082 H 
ATOM    130  CD2 TYR C   8       3.216  28.036   5.199  1.00  0.00    -0.003 A 
ATOM    131  HD2 TYR C   8       4.111  28.824   5.179  1.00  0.00     0.054 H 
ATOM    132  N   LYS C   9       4.546  26.132   0.205  1.00  0.00    -0.345 N 
ATOM    133  H   LYS C   9       3.434  25.726   0.096  1.00  0.00     0.163 HD
ATOM    134  CA  LYS C   9       5.446  26.214  -0.946  1.00  0.00     0.096 C 
ATOM    135  HA  LYS C   9       6.540  25.895  -0.598  1.00  0.00     0.089 H 
ATOM    136  C   LYS C   9       5.417  27.680  -1.532  1.00  0.00     0.196 C 
ATOM    137  O   LYS C   9       4.546  28.498  -1.140  1.00  0.00    -0.646 OA
ATOM    138  CB  LYS C   9       5.010  25.222  -2.159  1.00  0.00    -0.037 C 
ATOM    139  HB2 LYS C   9       4.069  25.790  -2.640  1.00  0.00     0.036 H 
ATOM    140  HB3 LYS C   9       4.431  24.443  -1.462  1.00  0.00     0.036 H 
ATOM    141  CG  LYS C   9       6.097  25.485  -3.208  1.00  0.00    -0.061 C 
ATOM    142  HG2 LYS C   9       6.394  26.462  -3.833  1.00  0.00     0.033 H 
ATOM    143  HG3 LYS C   9       7.151  25.079  -2.811  1.00  0.00     0.033 H 
ATOM    144  CD  LYS C   9       5.802  24.554  -4.357  1.00  0.00    -0.043 C 
ATOM    145  HD2 LYS C   9       5.081  25.069  -5.164  1.00  0.00     0.035 H 
ATOM    146  HD3 LYS C   9       6.775  24.316  -5.015  1.00  0.00     0.035 H 
ATOM    147  CE  LYS C   9       5.092  23.422  -3.623  1.00  0.00     0.080 C 
ATOM    148  HE2 LYS C   9       5.274  23.079  -2.492  1.00  0.00     0.075 H 
ATOM    149  HE3 LYS C   9       3.954  23.483  -3.996  1.00  0.00     0.075 H 
ATOM    150  NZ  LYS C   9       5.504  22.050  -3.953  1.00  0.00    -0.079 N 
ATOM    151  HZ1 LYS C   9       6.644  21.733  -3.754  1.00  0.00     0.274 HD
ATOM    152  HZ2 LYS C   9       4.869  21.144  -3.482  1.00  0.00     0.274 HD
ATOM    153  HZ3 LYS C   9       5.357  21.820  -5.123  1.00  0.00     0.274 HD
ATOM    154  OXT LYS C   9       6.442  27.970  -2.193  1.00  0.00    -0.646 OA
ENDROOT
TORSDOF 36
