REMARK  0 active torsions:
REMARK  status: ('A' for Active; 'I' for Inactive)
REMARK       I    between atoms: N_1  and  CA_5 
REMARK       I    between atoms: CA_5  and  C_7 
REMARK       I    between atoms: CA_5  and  CB_9 
REMARK       I    between atoms: C_7  and  N_14 
REMARK       I    between atoms: CB_9  and  OG_12 
REMARK       I    between atoms: N_14  and  CA_16 
REMARK       I    between atoms: CA_16  and  CB_20 
REMARK       I    between atoms: CA_16  and  C_18 
REMARK       I    between atoms: C_18  and  N_28 
REMARK       I    between atoms: CB_20  and  OG1_26 
REMARK       I    between atoms: CB_20  and  CG2_22 
REMARK       I    between atoms: N_28  and  CA_30 
REMARK       I    between atoms: CA_50  and  CB_54 
REMARK       I    between atoms: CB_54  and  CG_57 
REMARK       I    between atoms: CA_62  and  CB_66 
REMARK       I    between atoms: CB_66  and  CG_69 
REMARK       I    between atoms: CG_69  and  CD_72 
REMARK       I    between atoms: CA_77  and  C_79 
REMARK       I    between atoms: C_79  and  N_91 
REMARK       I    between atoms: CB_81  and  CG1_83 
REMARK       I    between atoms: N_91  and  CA_93 
REMARK       I    between atoms: CA_93  and  CB_97 
REMARK       I    between atoms: CA_93  and  C_95 
REMARK       I    between atoms: C_95  and  N_111 
REMARK       I    between atoms: CB_97  and  CG_100 
REMARK       I    between atoms: N_111  and  CA_113 
REMARK       I    between atoms: CA_113  and  CB_117 
REMARK       I    between atoms: CA_113  and  C_115 
REMARK       I    between atoms: CB_117  and  CG_120 
REMARK       I    between atoms: N_132  and  CB_117 
REMARK       I    between atoms: CZ_125  and  OH_126 
REMARK       I    between atoms: N_132  and  CA_134 
REMARK       I    between atoms: CA_134  and  CB_138 
REMARK       I    between atoms: CA_134  and  C_136 
REMARK       I    between atoms: CB_138  and  CG_141 
REMARK       I    between atoms: CG_141  and  CD_144 
REMARK       I    between atoms: CD_144  and  CE_147 
REMARK       I    between atoms: CE_147  and  NZ_150 
ROOT
ATOM      1  N   SER C   1       3.569  10.245  15.174  1.00  0.00    -0.064 N 
ATOM      2  H   SER C   1       4.739  10.035  15.017  1.00  0.00     0.275 HD
ATOM      3  H2  SER C   1       3.052   9.896  14.150  1.00  0.00     0.275 HD
ATOM      4  H3  SER C   1       3.232   9.388  15.942  1.00  0.00     0.275 HD
ATOM      5  CA  SER C   1       3.063  11.615  15.582  1.00  0.00     0.195 C 
ATOM      6  HA  SER C   1       1.901  11.482  15.817  1.00  0.00     0.102 H 
ATOM      7  C   SER C   1       3.501  12.536  14.439  1.00  0.00     0.251 C 
ATOM      8  O   SER C   1       4.647  12.524  13.986  1.00  0.00    -0.271 OA
ATOM      9  CB  SER C   1       3.799  12.126  16.857  1.00  0.00     0.051 C 
ATOM     10  HB2 SER C   1       3.265  13.118  17.260  1.00  0.00     0.077 H 
ATOM     11  HB3 SER C   1       4.963  12.345  16.723  1.00  0.00     0.077 H 
ATOM     12  OG  SER C   1       3.748  11.230  17.952  1.00  0.00    -0.398 OA
ATOM     13  HG  SER C   1       4.067  11.762  18.962  1.00  0.00     0.209 HD
ATOM     14  N   THR C   2       2.645  13.462  14.123  1.00  0.00    -0.344 N 
ATOM     15  H   THR C   2       1.811  13.818  14.892  1.00  0.00     0.163 HD
ATOM     16  CA  THR C   2       2.846  14.378  12.987  1.00  0.00     0.113 C 
ATOM     17  HA  THR C   2       3.349  13.636  12.197  1.00  0.00     0.091 H 
ATOM     18  C   THR C   2       3.766  15.521  13.358  1.00  0.00     0.243 C 
ATOM     19  O   THR C   2       3.873  15.884  14.534  1.00  0.00    -0.271 OA
ATOM     20  CB  THR C   2       1.511  14.974  12.535  1.00  0.00     0.060 C 
ATOM     21  HB  THR C   2       1.627  14.541  11.421  1.00  0.00     0.086 H 
ATOM     22  CG2 THR C   2       1.338  16.466  12.235  1.00  0.00    -0.050 C 
ATOM     23 1HG2 THR C   2       1.490  16.737  13.394  1.00  0.00     0.031 H 
ATOM     24 2HG2 THR C   2       0.592  17.415  12.189  1.00  0.00     0.031 H 
ATOM     25 3HG2 THR C   2       1.401  16.517  11.037  1.00  0.00     0.031 H 
ATOM     26  OG1 THR C   2       0.352  14.153  12.516  1.00  0.00    -0.393 OA
ATOM     27  HG1 THR C   2      -0.429  14.498  13.339  1.00  0.00     0.210 HD
ATOM     28  N   PHE C   3       4.439  16.099  12.364  1.00  0.00    -0.346 N 
ATOM     29  H   PHE C   3       4.370  15.657  11.262  1.00  0.00     0.163 HD
ATOM     30  CA  PHE C   3       5.339  17.221  12.598  1.00  0.00     0.093 C 
ATOM     31  HA  PHE C   3       5.722  17.090  13.720  1.00  0.00     0.088 H 
ATOM     32  C   PHE C   3       4.622  18.545  12.364  1.00  0.00     0.241 C 
ATOM     33  O   PHE C   3       3.673  18.614  11.577  1.00  0.00    -0.271 OA
ATOM     34  CB  PHE C   3       6.541  17.152  11.654  1.00  0.00    -0.014 C 
ATOM     35  HB2 PHE C   3       7.410  16.826  12.412  1.00  0.00     0.043 H 
ATOM     36  HB3 PHE C   3       6.586  16.216  10.907  1.00  0.00     0.043 H 
ATOM     37  CG  PHE C   3       7.082  18.159  10.682  1.00  0.00    -0.059 A 
ATOM     38  CD1 PHE C   3       6.275  18.635   9.642  1.00  0.00    -0.092 A 
ATOM     39  HD1 PHE C   3       5.151  18.297   9.453  1.00  0.00     0.078 H 
ATOM     40  CE1 PHE C   3       6.886  19.394   8.643  1.00  0.00    -0.024 A 
ATOM     41  HE1 PHE C   3       6.664  18.417   7.969  1.00  0.00     0.048 H 
ATOM     42  CZ  PHE C   3       8.240  19.767   8.752  1.00  0.00    -0.033 A 
ATOM     43  HZ  PHE C   3       8.959  18.996   8.164  1.00  0.00     0.046 H 
ATOM     44  CE2 PHE C   3       9.029  19.332   9.825  1.00  0.00    -0.098 A 
ATOM     45  HE2 PHE C   3      10.218  19.404   9.864  1.00  0.00     0.077 H 
ATOM     46  CD2 PHE C   3       8.419  18.566  10.818  1.00  0.00    -0.080 A 
ATOM     47  HD2 PHE C   3       9.231  18.039  11.511  1.00  0.00     0.083 H 
ATOM     48  N   ASP C   4       5.070  19.599  13.044  1.00  0.00    -0.345 N 
ATOM     49  H   ASP C   4       5.981  19.443  13.790  1.00  0.00     0.163 HD
ATOM     50  CA  ASP C   4       4.476  20.921  12.886  1.00  0.00     0.098 C 
ATOM     51  HA  ASP C   4       3.784  21.155  11.943  1.00  0.00     0.088 H 
ATOM     52  C   ASP C   4       5.557  21.985  12.745  1.00  0.00     0.241 C 
ATOM     53  O   ASP C   4       5.379  23.123  13.191  1.00  0.00    -0.271 OA
ATOM     54  CB  ASP C   4       3.614  21.271  14.102  1.00  0.00     0.043 C 
ATOM     55  HB2 ASP C   4       2.517  20.814  13.958  1.00  0.00     0.052 H 
ATOM     56  HB3 ASP C   4       3.394  22.423  14.337  1.00  0.00     0.052 H 
ATOM     57  CG  ASP C   4       3.953  20.707  15.496  1.00  0.00     0.175 C 
ATOM     58  OD1 ASP C   4       5.065  20.119  15.581  1.00  0.00    -0.648 OA
ATOM     59  OD2 ASP C   4       3.191  21.029  16.434  1.00  0.00    -0.648 OA
ATOM     60  N   GLU C   5       6.679  21.623  12.124  1.00  0.00    -0.346 N 
ATOM     61  H   GLU C   5       7.032  20.520  11.890  1.00  0.00     0.163 HD
ATOM     62  CA  GLU C   5       7.774  22.562  11.913  1.00  0.00     0.090 C 
ATOM     63  HA  GLU C   5       7.579  23.667  12.318  1.00  0.00     0.087 H 
ATOM     64  C   GLU C   5       7.964  22.844  10.428  1.00  0.00     0.241 C 
ATOM     65  O   GLU C   5       9.072  23.166   9.988  1.00  0.00    -0.271 OA
ATOM     66  CB  GLU C   5       9.083  21.994  12.465  1.00  0.00    -0.029 C 
ATOM     67  HB2 GLU C   5       8.917  21.171  13.315  1.00  0.00     0.037 H 
ATOM     68  HB3 GLU C   5       9.922  21.563  11.732  1.00  0.00     0.037 H 
ATOM     69  CG  GLU C   5       9.930  22.988  13.296  1.00  0.00     0.018 C 
ATOM     70  HG2 GLU C   5       9.332  23.610  14.125  1.00  0.00     0.049 H 
ATOM     71  HG3 GLU C   5      10.483  23.829  12.650  1.00  0.00     0.049 H 
ATOM     72  CD  GLU C   5      11.058  22.392  14.125  1.00  0.00     0.172 C 
ATOM     73  OE1 GLU C   5      12.207  22.393  13.625  1.00  0.00    -0.648 OA
ATOM     74  OE2 GLU C   5      10.849  22.283  15.353  1.00  0.00    -0.648 OA
ATOM     75  N   VAL C   6       6.889  22.725   9.651  1.00  0.00    -0.346 N 
ATOM     76  H   VAL C   6       5.861  23.077  10.129  1.00  0.00     0.163 HD
ATOM     77  CA  VAL C   6       6.947  22.989   8.217  1.00  0.00     0.092 C 
ATOM     78  HA  VAL C   6       7.893  23.714   8.158  1.00  0.00     0.088 H 
ATOM     79  C   VAL C   6       5.828  23.933   7.797  1.00  0.00     0.241 C 
ATOM     80  O   VAL C   6       4.702  23.833   8.295  1.00  0.00    -0.271 OA
ATOM     81  CB  VAL C   6       6.799  21.688   7.425  1.00  0.00    -0.032 C 
ATOM     82  HB  VAL C   6       7.707  22.186   6.807  1.00  0.00     0.042 H 
ATOM     83  CG1 VAL C   6       6.112  21.753   6.059  1.00  0.00    -0.071 C 
ATOM     84 1HG1 VAL C   6       5.831  20.768   5.424  1.00  0.00     0.028 H 
ATOM     85 2HG1 VAL C   6       4.971  22.049   6.284  1.00  0.00     0.028 H 
ATOM     86 3HG1 VAL C   6       6.525  22.347   5.103  1.00  0.00     0.028 H 
ATOM     87  CG2 VAL C   6       7.358  20.327   7.819  1.00  0.00    -0.062 C 
ATOM     88 1HG2 VAL C   6       7.060  19.746   6.799  1.00  0.00     0.029 H 
ATOM     89 2HG2 VAL C   6       6.912  20.923   8.776  1.00  0.00     0.029 H 
ATOM     90 3HG2 VAL C   6       8.435  20.585   7.315  1.00  0.00     0.029 H 
ATOM     91  N   PHE C   7       6.134  24.851   6.882  1.00  0.00    -0.346 N 
ATOM     92  H   PHE C   7       7.199  25.075   6.402  1.00  0.00     0.163 HD
ATOM     93  CA  PHE C   7       5.143  25.798   6.386  1.00  0.00     0.093 C 
ATOM     94  HA  PHE C   7       4.042  25.363   6.525  1.00  0.00     0.088 H 
ATOM     95  C   PHE C   7       5.393  26.122   4.919  1.00  0.00     0.241 C 
ATOM     96  O   PHE C   7       6.395  26.760   4.578  1.00  0.00    -0.271 OA
ATOM     97  CB  PHE C   7       5.203  27.104   7.182  1.00  0.00    -0.014 C 
ATOM     98  HB2 PHE C   7       4.346  26.985   8.010  1.00  0.00     0.043 H 
ATOM     99  HB3 PHE C   7       6.210  27.175   7.828  1.00  0.00     0.043 H 
ATOM    100  CG  PHE C   7       5.191  28.595   6.927  1.00  0.00    -0.056 A 
ATOM    101  CD1 PHE C   7       6.273  29.221   6.280  1.00  0.00    -0.077 A 
ATOM    102  HD1 PHE C   7       7.353  28.811   6.002  1.00  0.00     0.084 H 
ATOM    103  CE1 PHE C   7       6.370  30.617   6.285  1.00  0.00    -0.082 A 
ATOM    104  HE1 PHE C   7       7.347  31.221   5.983  1.00  0.00     0.083 H 
ATOM    105  CZ  PHE C   7       5.303  31.384   6.782  1.00  0.00    -0.083 A 
ATOM    106  HZ  PHE C   7       5.290  32.560   6.621  1.00  0.00     0.083 H 
ATOM    107  CE2 PHE C   7       4.211  30.761   7.413  1.00  0.00    -0.082 A 
ATOM    108  HE2 PHE C   7       3.461  31.453   8.021  1.00  0.00     0.083 H 
ATOM    109  CD2 PHE C   7       4.114  29.372   7.398  1.00  0.00    -0.077 A 
ATOM    110  HD2 PHE C   7       2.985  29.049   7.574  1.00  0.00     0.084 H 
ATOM    111  N   TYR C   8       4.488  25.685   4.044  1.00  0.00    -0.346 N 
ATOM    112  H   TYR C   8       3.446  25.298   4.458  1.00  0.00     0.163 HD
ATOM    113  CA  TYR C   8       4.614  25.956   2.591  1.00  0.00     0.091 C 
ATOM    114  HA  TYR C   8       5.724  25.564   2.400  1.00  0.00     0.087 H 
ATOM    115  C   TYR C   8       4.726  27.474   2.344  1.00  0.00     0.221 C 
ATOM    116  O   TYR C   8       3.989  28.263   2.944  1.00  0.00    -0.287 OA
ATOM    117  CB  TYR C   8       3.392  25.427   1.837  1.00  0.00     0.013 C 
ATOM    118  HB2 TYR C   8       2.652  26.259   2.291  1.00  0.00     0.064 H 
ATOM    119  HB3 TYR C   8       2.758  25.429   0.815  1.00  0.00     0.064 H 
ATOM    120  CG  TYR C   8       2.770  24.096   2.171  1.00  0.00    -0.044 A 
ATOM    121  CD1 TYR C   8       3.433  22.883   1.912  1.00  0.00    -0.073 A 
ATOM    122  HD1 TYR C   8       4.488  22.611   1.441  1.00  0.00     0.084 H 
ATOM    123  CE1 TYR C   8       2.889  21.679   2.393  1.00  0.00    -0.051 A 
ATOM    124  HE1 TYR C   8       3.264  20.608   2.040  1.00  0.00     0.087 H 
ATOM    125  CZ  TYR C   8       1.687  21.711   3.129  1.00  0.00     0.065 A 
ATOM    126  OH  TYR C   8       1.209  20.583   3.707  1.00  0.00    -0.361 OA
ATOM    127  HH  TYR C   8       1.658  20.448   4.793  1.00  0.00     0.217 HD
ATOM    128  CE2 TYR C   8       0.965  22.913   3.283  1.00  0.00    -0.051 A 
ATOM    129  HE2 TYR C   8      -0.100  22.869   3.807  1.00  0.00     0.087 H 
ATOM    130  CD2 TYR C   8       1.503  24.104   2.771  1.00  0.00    -0.073 A 
ATOM    131  HD2 TYR C   8       0.614  24.892   2.712  1.00  0.00     0.084 H 
ATOM    132  N   LYS C   9       4.546  26.132   0.205  1.00  0.00    -0.306 NA
ATOM    133  H   LYS C   9       4.853  24.998   0.367  1.00  0.00     0.122 HD
ATOM    134  CA  LYS C   9       5.446  26.214  -0.946  1.00  0.00     0.077 C 
ATOM    135  HA  LYS C   9       6.596  26.213  -0.631  1.00  0.00     0.080 H 
ATOM    136  C   LYS C   9       5.417  27.680  -1.532  1.00  0.00     0.191 C 
ATOM    137  O   LYS C   9       4.546  28.498  -1.140  1.00  0.00    -0.647 OA
ATOM    138  CB  LYS C   9       5.010  25.222  -2.159  1.00  0.00    -0.041 C 
ATOM    139  HB2 LYS C   9       5.261  25.902  -3.110  1.00  0.00     0.036 H 
ATOM    140  HB3 LYS C   9       3.820  25.194  -2.121  1.00  0.00     0.036 H 
ATOM    141  CG  LYS C   9       5.790  23.922  -2.415  1.00  0.00    -0.062 C 
ATOM    142  HG2 LYS C   9       6.951  24.134  -2.611  1.00  0.00     0.033 H 
ATOM    143  HG3 LYS C   9       5.792  23.168  -1.488  1.00  0.00     0.033 H 
ATOM    144  CD  LYS C   9       4.982  23.412  -3.599  1.00  0.00    -0.043 C 
ATOM    145  HD2 LYS C   9       4.629  24.104  -4.510  1.00  0.00     0.035 H 
ATOM    146  HD3 LYS C   9       3.922  23.024  -3.200  1.00  0.00     0.035 H 
ATOM    147  CE  LYS C   9       5.565  22.124  -4.149  1.00  0.00     0.080 C 
ATOM    148  HE2 LYS C   9       4.727  21.336  -4.486  1.00  0.00     0.075 H 
ATOM    149  HE3 LYS C   9       6.188  21.430  -3.398  1.00  0.00     0.075 H 
ATOM    150  NZ  LYS C   9       6.370  22.523  -5.300  1.00  0.00    -0.079 N 
ATOM    151  HZ1 LYS C   9       5.898  22.038  -6.292  1.00  0.00     0.274 HD
ATOM    152  HZ2 LYS C   9       6.676  23.616  -5.686  1.00  0.00     0.274 HD
ATOM    153  HZ3 LYS C   9       7.454  22.013  -5.217  1.00  0.00     0.274 HD
ATOM    154  OXT LYS C   9       6.311  28.046  -2.412  1.00  0.00    -0.647 OA
ENDROOT
TORSDOF 34
