REMARK  0 active torsions:
REMARK  status: ('A' for Active; 'I' for Inactive)
REMARK       I    between atoms: N_1  and  CA_5 
REMARK       I    between atoms: CA_5  and  C_7 
REMARK       I    between atoms: CA_5  and  CB_9 
REMARK       I    between atoms: C_7  and  N_14 
REMARK       I    between atoms: CB_9  and  OG_12 
REMARK       I    between atoms: N_14  and  CA_16 
REMARK       I    between atoms: CA_16  and  CB_20 
REMARK       I    between atoms: CA_16  and  C_18 
REMARK       I    between atoms: C_18  and  N_28 
REMARK       I    between atoms: CB_20  and  CG2_22 
REMARK       I    between atoms: CB_20  and  OG1_26 
REMARK       I    between atoms: N_28  and  CA_30 
REMARK       I    between atoms: CA_30  and  CB_34 
REMARK       I    between atoms: CA_30  and  C_32 
REMARK       I    between atoms: C_32  and  N_48 
REMARK       I    between atoms: CB_34  and  CG_37 
REMARK       I    between atoms: N_48  and  CA_50 
REMARK       I    between atoms: CA_50  and  CB_54 
REMARK       I    between atoms: CA_50  and  C_52 
REMARK       I    between atoms: C_52  and  N_60 
REMARK       I    between atoms: CB_54  and  CG_57 
REMARK       I    between atoms: N_60  and  CA_62 
REMARK       I    between atoms: CA_62  and  C_64 
REMARK       I    between atoms: CA_62  and  CB_66 
REMARK       I    between atoms: C_64  and  N_75 
REMARK       I    between atoms: CB_66  and  CG_69 
REMARK       I    between atoms: CG_69  and  CD_72 
REMARK       I    between atoms: N_75  and  CA_77 
REMARK       I    between atoms: CA_77  and  C_79 
REMARK       I    between atoms: CA_77  and  CB_81 
REMARK       I    between atoms: C_79  and  N_91 
REMARK       I    between atoms: CB_81  and  CG1_83 
REMARK       I    between atoms: CB_81  and  CG2_87 
REMARK       I    between atoms: N_91  and  CA_93 
REMARK       I    between atoms: CA_93  and  CB_97 
REMARK       I    between atoms: CA_93  and  C_95 
REMARK       I    between atoms: C_95  and  N_111 
REMARK       I    between atoms: CB_97  and  CG_100 
REMARK       I    between atoms: N_111  and  CA_113 
REMARK       I    between atoms: CA_113  and  CB_117 
REMARK       I    between atoms: CA_113  and  C_115 
REMARK       I    between atoms: C_115  and  N_132 
REMARK       I    between atoms: CB_117  and  CG_120 
REMARK       I    between atoms: CZ_125  and  OH_126 
REMARK       I    between atoms: N_132  and  CA_134 
REMARK       I    between atoms: CA_134  and  C_136 
REMARK       I    between atoms: CA_134  and  CB_138 
REMARK       I    between atoms: CB_138  and  CG_141 
REMARK       I    between atoms: CG_141  and  CD_144 
REMARK       I    between atoms: CD_144  and  CE_147 
REMARK       I    between atoms: CE_147  and  NZ_150 
ROOT
ATOM      1  N   SER C   1       3.569  10.245  15.174  1.00  0.00    -0.064 N 
ATOM      2  H   SER C   1       4.727  10.041  14.949  1.00  0.00     0.275 HD
ATOM      3  H2  SER C   1       3.267   9.401  15.970  1.00  0.00     0.275 HD
ATOM      4  H3  SER C   1       2.982   9.913  14.182  1.00  0.00     0.275 HD
ATOM      5  CA  SER C   1       3.063  11.615  15.582  1.00  0.00     0.195 C 
ATOM      6  HA  SER C   1       1.878  11.631  15.704  1.00  0.00     0.102 H 
ATOM      7  C   SER C   1       3.501  12.536  14.439  1.00  0.00     0.251 C 
ATOM      8  O   SER C   1       4.647  12.524  13.986  1.00  0.00    -0.271 OA
ATOM      9  CB  SER C   1       3.799  12.126  16.857  1.00  0.00     0.051 C 
ATOM     10  HB2 SER C   1       4.965  12.352  16.737  1.00  0.00     0.077 H 
ATOM     11  HB3 SER C   1       3.231  13.115  17.218  1.00  0.00     0.077 H 
ATOM     12  OG  SER C   1       3.745  11.229  17.950  1.00  0.00    -0.398 OA
ATOM     13  HG  SER C   1       4.022  11.772  18.967  1.00  0.00     0.209 HD
ATOM     14  N   THR C   2       3.124  14.087  13.718  1.00  0.00    -0.344 N 
ATOM     15  H   THR C   2       2.237  14.272  14.487  1.00  0.00     0.163 HD
ATOM     16  CA  THR C   2       3.459  15.248  12.876  1.00  0.00     0.113 C 
ATOM     17  HA  THR C   2       4.199  14.639  12.162  1.00  0.00     0.091 H 
ATOM     18  C   THR C   2       4.127  16.339  13.684  1.00  0.00     0.243 C 
ATOM     19  O   THR C   2       3.925  16.434  14.898  1.00  0.00    -0.271 OA
ATOM     20  CB  THR C   2       2.196  15.835  12.242  1.00  0.00     0.060 C 
ATOM     21  HB  THR C   2       2.584  15.857  11.107  1.00  0.00     0.086 H 
ATOM     22  CG2 THR C   2       1.895  17.337  12.259  1.00  0.00    -0.050 C 
ATOM     23 1HG2 THR C   2       1.406  17.524  13.339  1.00  0.00     0.031 H 
ATOM     24 2HG2 THR C   2       2.493  18.341  12.016  1.00  0.00     0.031 H 
ATOM     25 3HG2 THR C   2       0.942  17.455  11.537  1.00  0.00     0.031 H 
ATOM     26  OG1 THR C   2       1.176  14.959  11.784  1.00  0.00    -0.393 OA
ATOM     27  HG1 THR C   2       1.371  13.833  12.091  1.00  0.00     0.210 HD
ATOM     28  N   PHE C   3       4.929  17.172  13.022  1.00  0.00    -0.346 N 
ATOM     29  H   PHE C   3       5.590  16.555  12.247  1.00  0.00     0.163 HD
ATOM     30  CA  PHE C   3       5.610  18.273  13.692  1.00  0.00     0.088 C 
ATOM     31  HA  PHE C   3       4.966  18.629  14.630  1.00  0.00     0.087 H 
ATOM     32  C   PHE C   3       5.605  19.521  12.819  1.00  0.00     0.221 C 
ATOM     33  O   PHE C   3       5.810  20.634  13.314  1.00  0.00    -0.278 OA
ATOM     34  CB  PHE C   3       7.065  17.902  13.990  1.00  0.00    -0.014 C 
ATOM     35  HB2 PHE C   3       7.062  16.872  14.588  1.00  0.00     0.043 H 
ATOM     36  HB3 PHE C   3       7.741  17.736  13.018  1.00  0.00     0.043 H 
ATOM     37  CG  PHE C   3       7.974  18.706  14.909  1.00  0.00    -0.056 A 
ATOM     38  CD1 PHE C   3       7.499  19.754  15.714  1.00  0.00    -0.077 A 
ATOM     39  HD1 PHE C   3       6.472  19.809  16.311  1.00  0.00     0.084 H 
ATOM     40  CE1 PHE C   3       8.392  20.512  16.493  1.00  0.00    -0.082 A 
ATOM     41  HE1 PHE C   3       8.078  21.482  17.102  1.00  0.00     0.083 H 
ATOM     42  CZ  PHE C   3       9.758  20.193  16.507  1.00  0.00    -0.083 A 
ATOM     43  HZ  PHE C   3      10.522  20.812  17.172  1.00  0.00     0.083 H 
ATOM     44  CE2 PHE C   3      10.231  19.119  15.743  1.00  0.00    -0.082 A 
ATOM     45  HE2 PHE C   3      11.382  18.838  15.830  1.00  0.00     0.083 H 
ATOM     46  CD2 PHE C   3       9.340  18.382  14.945  1.00  0.00    -0.077 A 
ATOM     47  HD2 PHE C   3       9.924  17.503  14.398  1.00  0.00     0.084 H 
ATOM     48  N   ASP C   4       5.371  19.346  11.519  1.00  0.00    -0.247 NA
ATOM     49  H   ASP C   4       6.280  18.696  11.101  1.00  0.00     0.131 HD
ATOM     50  CA  ASP C   4       5.323  20.469  10.591  1.00  0.00     0.085 C 
ATOM     51  HA  ASP C   4       6.354  21.071  10.629  1.00  0.00     0.080 H 
ATOM     52  C   ASP C   4       4.081  21.316  10.834  1.00  0.00     0.236 C 
ATOM     53  O   ASP C   4       2.961  20.888  10.535  1.00  0.00    -0.272 OA
ATOM     54  CB  ASP C   4       5.288  19.970   9.145  1.00  0.00     0.039 C 
ATOM     55  HB2 ASP C   4       4.516  20.534   8.430  1.00  0.00     0.052 H 
ATOM     56  HB3 ASP C   4       6.360  19.998   8.617  1.00  0.00     0.052 H 
ATOM     57  CG  ASP C   4       4.860  18.520   8.901  1.00  0.00     0.174 C 
ATOM     58  OD1 ASP C   4       4.486  17.837   9.879  1.00  0.00    -0.648 OA
ATOM     59  OD2 ASP C   4       4.820  18.162   7.712  1.00  0.00    -0.648 OA
ATOM     60  N   GLU C   5       4.269  22.518  11.376  1.00  0.00    -0.346 N 
ATOM     61  H   GLU C   5       5.327  22.801  11.842  1.00  0.00     0.163 HD
ATOM     62  CA  GLU C   5       3.157  23.424  11.636  1.00  0.00     0.090 C 
ATOM     63  HA  GLU C   5       2.115  22.871  11.453  1.00  0.00     0.087 H 
ATOM     64  C   GLU C   5       3.076  24.500  10.561  1.00  0.00     0.241 C 
ATOM     65  O   GLU C   5       1.980  24.919  10.175  1.00  0.00    -0.271 OA
ATOM     66  CB  GLU C   5       3.330  24.112  12.992  1.00  0.00    -0.029 C 
ATOM     67  HB2 GLU C   5       4.283  23.781  13.642  1.00  0.00     0.037 H 
ATOM     68  HB3 GLU C   5       2.396  23.600  13.537  1.00  0.00     0.037 H 
ATOM     69  CG  GLU C   5       3.195  25.531  13.567  1.00  0.00     0.018 C 
ATOM     70  HG2 GLU C   5       4.165  26.207  13.751  1.00  0.00     0.049 H 
ATOM     71  HG3 GLU C   5       2.278  26.133  13.087  1.00  0.00     0.049 H 
ATOM     72  CD  GLU C   5       2.810  25.467  15.063  1.00  0.00     0.172 C 
ATOM     73  OE1 GLU C   5       1.707  25.982  15.358  1.00  0.00    -0.648 OA
ATOM     74  OE2 GLU C   5       3.630  25.065  15.936  1.00  0.00    -0.648 OA
ATOM     75  N   VAL C   6       4.230  24.953  10.075  1.00  0.00    -0.346 N 
ATOM     76  H   VAL C   6       5.335  24.605  10.338  1.00  0.00     0.163 HD
ATOM     77  CA  VAL C   6       4.275  25.969   9.029  1.00  0.00     0.092 C 
ATOM     78  HA  VAL C   6       3.201  26.316   8.646  1.00  0.00     0.088 H 
ATOM     79  C   VAL C   6       5.167  25.520   7.879  1.00  0.00     0.241 C 
ATOM     80  O   VAL C   6       6.395  25.497   8.010  1.00  0.00    -0.271 OA
ATOM     81  CB  VAL C   6       4.830  27.284   9.581  1.00  0.00    -0.033 C 
ATOM     82  HB  VAL C   6       5.927  26.948   9.924  1.00  0.00     0.042 H 
ATOM     83  CG1 VAL C   6       5.382  28.357   8.632  1.00  0.00    -0.071 C 
ATOM     84 1HG1 VAL C   6       4.883  29.431   8.825  1.00  0.00     0.028 H 
ATOM     85 2HG1 VAL C   6       5.223  28.218   7.455  1.00  0.00     0.028 H 
ATOM     86 3HG1 VAL C   6       6.548  28.638   8.693  1.00  0.00     0.028 H 
ATOM     87  CG2 VAL C   6       4.440  27.749  10.980  1.00  0.00    -0.071 C 
ATOM     88 1HG2 VAL C   6       4.500  28.938  11.143  1.00  0.00     0.028 H 
ATOM     89 2HG2 VAL C   6       3.258  27.629  11.121  1.00  0.00     0.028 H 
ATOM     90 3HG2 VAL C   6       5.144  27.453  11.903  1.00  0.00     0.028 H 
ATOM     91  N   PHE C   7       4.553  25.162   6.752  1.00  0.00    -0.346 N 
ATOM     92  H   PHE C   7       3.380  24.993   6.645  1.00  0.00     0.163 HD
ATOM     93  CA  PHE C   7       5.300  24.733   5.577  1.00  0.00     0.093 C 
ATOM     94  HA  PHE C   7       6.365  25.239   5.410  1.00  0.00     0.088 H 
ATOM     95  C   PHE C   7       4.513  25.018   4.304  1.00  0.00     0.241 C 
ATOM     96  O   PHE C   7       3.816  24.140   3.787  1.00  0.00    -0.271 OA
ATOM     97  CB  PHE C   7       5.583  23.230   5.639  1.00  0.00    -0.014 C 
ATOM     98  HB2 PHE C   7       4.737  22.778   6.358  1.00  0.00     0.043 H 
ATOM     99  HB3 PHE C   7       6.608  23.154   6.247  1.00  0.00     0.043 H 
ATOM    100  CG  PHE C   7       5.741  22.008   4.759  1.00  0.00    -0.056 A 
ATOM    101  CD1 PHE C   7       4.603  21.437   4.174  1.00  0.00    -0.077 A 
ATOM    102  HD1 PHE C   7       3.443  21.696   4.192  1.00  0.00     0.084 H 
ATOM    103  CE1 PHE C   7       4.686  20.142   3.630  1.00  0.00    -0.082 A 
ATOM    104  HE1 PHE C   7       3.757  19.522   3.226  1.00  0.00     0.083 H 
ATOM    105  CZ  PHE C   7       5.945  19.542   3.479  1.00  0.00    -0.083 A 
ATOM    106  HZ  PHE C   7       6.046  18.504   2.909  1.00  0.00     0.083 H 
ATOM    107  CE2 PHE C   7       7.086  20.121   4.044  1.00  0.00    -0.082 A 
ATOM    108  HE2 PHE C   7       8.096  19.497   4.018  1.00  0.00     0.083 H 
ATOM    109  CD2 PHE C   7       7.010  21.418   4.584  1.00  0.00    -0.077 A 
ATOM    110  HD2 PHE C   7       8.076  21.944   4.566  1.00  0.00     0.084 H 
ATOM    111  N   TYR C   8       4.620  26.244   3.793  1.00  0.00    -0.346 N 
ATOM    112  H   TYR C   8       5.472  27.017   4.095  1.00  0.00     0.163 HD
ATOM    113  CA  TYR C   8       3.916  26.633   2.546  1.00  0.00     0.093 C 
ATOM    114  HA  TYR C   8       2.990  25.900   2.392  1.00  0.00     0.088 H 
ATOM    115  C   TYR C   8       4.909  26.665   1.367  1.00  0.00     0.241 C 
ATOM    116  O   TYR C   8       6.025  27.178   1.500  1.00  0.00    -0.271 OA
ATOM    117  CB  TYR C   8       3.288  28.020   2.694  1.00  0.00    -0.014 C 
ATOM    118  HB2 TYR C   8       2.417  28.180   1.886  1.00  0.00     0.043 H 
ATOM    119  HB3 TYR C   8       4.056  28.880   2.372  1.00  0.00     0.043 H 
ATOM    120  CG  TYR C   8       2.580  28.448   3.951  1.00  0.00    -0.056 A 
ATOM    121  CD1 TYR C   8       1.356  27.878   4.345  1.00  0.00    -0.074 A 
ATOM    122  HD1 TYR C   8       0.537  27.380   3.643  1.00  0.00     0.084 H 
ATOM    123  CE1 TYR C   8       0.838  28.177   5.617  1.00  0.00    -0.051 A 
ATOM    124  HE1 TYR C   8      -0.259  27.856   5.941  1.00  0.00     0.087 H 
ATOM    125  CZ  TYR C   8       1.543  29.059   6.462  1.00  0.00     0.065 A 
ATOM    126  OH  TYR C   8       1.115  29.274   7.738  1.00  0.00    -0.361 OA
ATOM    127  HH  TYR C   8       1.414  30.362   8.119  1.00  0.00     0.217 HD
ATOM    128  CE2 TYR C   8       2.696  29.727   6.008  1.00  0.00    -0.051 A 
ATOM    129  HE2 TYR C   8       2.988  30.821   6.375  1.00  0.00     0.087 H 
ATOM    130  CD2 TYR C   8       3.198  29.438   4.732  1.00  0.00    -0.074 A 
ATOM    131  HD2 TYR C   8       3.944  30.278   4.341  1.00  0.00     0.084 H 
ATOM    132  N   LYS C   9       4.546  26.132   0.205  1.00  0.00    -0.345 N 
ATOM    133  H   LYS C   9       3.515  25.550   0.094  1.00  0.00     0.163 HD
ATOM    134  CA  LYS C   9       5.446  26.214  -0.946  1.00  0.00     0.096 C 
ATOM    135  HA  LYS C   9       6.588  26.023  -0.664  1.00  0.00     0.089 H 
ATOM    136  C   LYS C   9       5.417  27.680  -1.532  1.00  0.00     0.196 C 
ATOM    137  O   LYS C   9       4.546  28.498  -1.140  1.00  0.00    -0.646 OA
ATOM    138  CB  LYS C   9       5.010  25.222  -2.159  1.00  0.00    -0.037 C 
ATOM    139  HB2 LYS C   9       5.228  25.900  -3.121  1.00  0.00     0.036 H 
ATOM    140  HB3 LYS C   9       3.821  25.142  -2.112  1.00  0.00     0.036 H 
ATOM    141  CG  LYS C   9       5.784  23.926  -2.411  1.00  0.00    -0.061 C 
ATOM    142  HG2 LYS C   9       5.770  23.269  -1.412  1.00  0.00     0.033 H 
ATOM    143  HG3 LYS C   9       6.942  24.097  -2.652  1.00  0.00     0.033 H 
ATOM    144  CD  LYS C   9       4.977  23.407  -3.600  1.00  0.00    -0.043 C 
ATOM    145  HD2 LYS C   9       3.954  22.982  -3.146  1.00  0.00     0.035 H 
ATOM    146  HD3 LYS C   9       4.577  24.098  -4.488  1.00  0.00     0.035 H 
ATOM    147  CE  LYS C   9       5.565  22.124  -4.145  1.00  0.00     0.080 C 
ATOM    148  HE2 LYS C   9       6.148  21.401  -3.386  1.00  0.00     0.075 H 
ATOM    149  HE3 LYS C   9       4.703  21.376  -4.507  1.00  0.00     0.075 H 
ATOM    150  NZ  LYS C   9       6.374  22.518  -5.306  1.00  0.00    -0.079 N 
ATOM    151  HZ1 LYS C   9       6.128  21.773  -6.216  1.00  0.00     0.274 HD
ATOM    152  HZ2 LYS C   9       7.537  22.315  -5.091  1.00  0.00     0.274 HD
ATOM    153  HZ3 LYS C   9       6.404  23.572  -5.876  1.00  0.00     0.274 HD
ATOM    154  OXT LYS C   9       6.270  27.994  -2.375  1.00  0.00    -0.646 OA
ENDROOT
TORSDOF 43
