REMARK  0 active torsions:
REMARK  status: ('A' for Active; 'I' for Inactive)
REMARK       I    between atoms: N_1  and  CA_5 
REMARK       I    between atoms: CA_5  and  C_7 
REMARK       I    between atoms: CA_5  and  CB_9 
REMARK       I    between atoms: C_7  and  N_14 
REMARK       I    between atoms: CB_9  and  OG_12 
REMARK       I    between atoms: N_14  and  CA_16 
REMARK       I    between atoms: CA_16  and  CB_20 
REMARK       I    between atoms: CA_16  and  C_18 
REMARK       I    between atoms: C_18  and  N_28 
REMARK       I    between atoms: CB_20  and  CG2_22 
REMARK       I    between atoms: CB_20  and  OG1_26 
REMARK       I    between atoms: N_28  and  CA_30 
REMARK       I    between atoms: CA_30  and  CB_34 
REMARK       I    between atoms: CA_30  and  C_32 
REMARK       I    between atoms: C_32  and  N_48 
REMARK       I    between atoms: CB_34  and  CG_37 
REMARK       I    between atoms: N_48  and  CA_50 
REMARK       I    between atoms: CA_50  and  CB_54 
REMARK       I    between atoms: CA_50  and  C_52 
REMARK       I    between atoms: C_52  and  N_60 
REMARK       I    between atoms: CB_54  and  CG_57 
REMARK       I    between atoms: N_60  and  CA_62 
REMARK       I    between atoms: CA_62  and  C_64 
REMARK       I    between atoms: CA_62  and  CB_66 
REMARK       I    between atoms: C_64  and  N_75 
REMARK       I    between atoms: CB_66  and  CG_69 
REMARK       I    between atoms: CG_69  and  CD_72 
REMARK       I    between atoms: N_75  and  CA_77 
REMARK       I    between atoms: CA_77  and  C_79 
REMARK       I    between atoms: CA_77  and  CB_81 
REMARK       I    between atoms: C_79  and  N_91 
REMARK       I    between atoms: CB_81  and  CG1_83 
REMARK       I    between atoms: CB_81  and  CG2_87 
REMARK       I    between atoms: N_91  and  CA_93 
REMARK       I    between atoms: CA_93  and  CB_97 
REMARK       I    between atoms: CA_93  and  C_95 
REMARK       I    between atoms: C_95  and  N_111 
REMARK       I    between atoms: CB_97  and  CG_100 
REMARK       I    between atoms: N_111  and  CA_113 
REMARK       I    between atoms: CA_113  and  C_115 
REMARK       I    between atoms: CA_113  and  CB_117 
REMARK       I    between atoms: C_115  and  N_132 
REMARK       I    between atoms: CB_117  and  CG_120 
REMARK       I    between atoms: CZ_125  and  OH_126 
REMARK       I    between atoms: N_132  and  CA_134 
REMARK       I    between atoms: CA_134  and  CB_138 
REMARK       I    between atoms: CA_134  and  C_136 
REMARK       I    between atoms: CB_138  and  CG_141 
REMARK       I    between atoms: CG_141  and  CD_144 
REMARK       I    between atoms: CD_144  and  CE_147 
REMARK       I    between atoms: CE_147  and  NZ_150 
ROOT
ATOM      1  N   SER C   1       3.569  10.245  15.174  1.00  0.00    -0.064 N 
ATOM      2  H   SER C   1       2.686   9.453  15.354  1.00  0.00     0.275 HD
ATOM      3  H2  SER C   1       3.820  10.046  14.019  1.00  0.00     0.275 HD
ATOM      4  H3  SER C   1       4.502   9.745  15.734  1.00  0.00     0.275 HD
ATOM      5  CA  SER C   1       3.063  11.615  15.582  1.00  0.00     0.195 C 
ATOM      6  HA  SER C   1       1.896  11.525  15.808  1.00  0.00     0.102 H 
ATOM      7  C   SER C   1       3.501  12.536  14.439  1.00  0.00     0.251 C 
ATOM      8  O   SER C   1       4.647  12.524  13.986  1.00  0.00    -0.271 OA
ATOM      9  CB  SER C   1       3.799  12.126  16.857  1.00  0.00     0.051 C 
ATOM     10  HB2 SER C   1       3.257  13.116  17.252  1.00  0.00     0.077 H 
ATOM     11  HB3 SER C   1       4.969  12.346  16.750  1.00  0.00     0.077 H 
ATOM     12  OG  SER C   1       3.743  11.226  17.949  1.00  0.00    -0.398 OA
ATOM     13  HG  SER C   1       4.070  11.784  18.943  1.00  0.00     0.209 HD
ATOM     14  N   THR C   2       2.645  13.462  14.123  1.00  0.00    -0.344 N 
ATOM     15  H   THR C   2       1.813  13.838  14.885  1.00  0.00     0.163 HD
ATOM     16  CA  THR C   2       2.846  14.378  12.987  1.00  0.00     0.113 C 
ATOM     17  HA  THR C   2       3.265  13.614  12.170  1.00  0.00     0.091 H 
ATOM     18  C   THR C   2       3.766  15.521  13.358  1.00  0.00     0.243 C 
ATOM     19  O   THR C   2       3.873  15.884  14.534  1.00  0.00    -0.271 OA
ATOM     20  CB  THR C   2       1.511  14.974  12.535  1.00  0.00     0.060 C 
ATOM     21  HB  THR C   2       1.594  14.684  11.372  1.00  0.00     0.086 H 
ATOM     22  CG2 THR C   2       1.338  16.468  12.244  1.00  0.00    -0.050 C 
ATOM     23 1HG2 THR C   2       0.184  16.605  11.935  1.00  0.00     0.031 H 
ATOM     24 2HG2 THR C   2       1.807  17.045  11.307  1.00  0.00     0.031 H 
ATOM     25 3HG2 THR C   2       1.369  17.129  13.242  1.00  0.00     0.031 H 
ATOM     26  OG1 THR C   2       0.351  14.154  12.517  1.00  0.00    -0.393 OA
ATOM     27  HG1 THR C   2      -0.386  14.472  13.389  1.00  0.00     0.210 HD
ATOM     28  N   PHE C   3       4.439  16.099  12.364  1.00  0.00    -0.346 N 
ATOM     29  H   PHE C   3       4.466  15.571  11.299  1.00  0.00     0.163 HD
ATOM     30  CA  PHE C   3       5.339  17.221  12.598  1.00  0.00     0.093 C 
ATOM     31  HA  PHE C   3       5.442  17.377  13.776  1.00  0.00     0.088 H 
ATOM     32  C   PHE C   3       4.776  18.499  11.990  1.00  0.00     0.241 C 
ATOM     33  O   PHE C   3       3.879  18.449  11.143  1.00  0.00    -0.271 OA
ATOM     34  CB  PHE C   3       6.708  16.952  11.970  1.00  0.00    -0.014 C 
ATOM     35  HB2 PHE C   3       7.421  16.758  12.913  1.00  0.00     0.043 H 
ATOM     36  HB3 PHE C   3       6.813  15.885  11.437  1.00  0.00     0.043 H 
ATOM     37  CG  PHE C   3       7.475  17.787  10.989  1.00  0.00    -0.059 A 
ATOM     38  CD1 PHE C   3       6.900  18.074   9.755  1.00  0.00    -0.092 A 
ATOM     39  HD1 PHE C   3       6.082  17.333   9.309  1.00  0.00     0.078 H 
ATOM     40  CE1 PHE C   3       7.703  18.704   8.805  1.00  0.00    -0.023 A 
ATOM     41  HE1 PHE C   3       7.973  17.735   8.157  1.00  0.00     0.048 H 
ATOM     42  CZ  PHE C   3       8.973  19.190   9.151  1.00  0.00    -0.023 A 
ATOM     43  HZ  PHE C   3       9.389  20.308   9.237  1.00  0.00     0.048 H 
ATOM     44  CE2 PHE C   3       9.561  18.873  10.377  1.00  0.00    -0.097 A 
ATOM     45  HE2 PHE C   3      10.741  18.878  10.533  1.00  0.00     0.077 H 
ATOM     46  CD2 PHE C   3       8.764  18.227  11.325  1.00  0.00    -0.080 A 
ATOM     47  HD2 PHE C   3       9.400  18.069  12.317  1.00  0.00     0.083 H 
ATOM     48  N   ASP C   4       5.298  19.648  12.418  1.00  0.00    -0.345 N 
ATOM     49  H   ASP C   4       6.400  19.435  12.798  1.00  0.00     0.163 HD
ATOM     50  CA  ASP C   4       4.852  20.933  11.893  1.00  0.00     0.098 C 
ATOM     51  HA  ASP C   4       3.668  20.972  11.751  1.00  0.00     0.088 H 
ATOM     52  C   ASP C   4       5.623  21.297  10.631  1.00  0.00     0.241 C 
ATOM     53  O   ASP C   4       6.684  21.926  10.702  1.00  0.00    -0.271 OA
ATOM     54  CB  ASP C   4       5.073  22.041  12.926  1.00  0.00     0.043 C 
ATOM     55  HB2 ASP C   4       5.355  23.144  12.562  1.00  0.00     0.052 H 
ATOM     56  HB3 ASP C   4       4.078  22.170  13.579  1.00  0.00     0.052 H 
ATOM     57  CG  ASP C   4       6.069  21.781  14.064  1.00  0.00     0.175 C 
ATOM     58  OD1 ASP C   4       6.756  20.732  14.035  1.00  0.00    -0.648 OA
ATOM     59  OD2 ASP C   4       6.217  22.732  14.842  1.00  0.00    -0.648 OA
ATOM     60  N   GLU C   5       5.097  20.906   9.471  1.00  0.00    -0.346 N 
ATOM     61  H   GLU C   5       3.992  20.487   9.339  1.00  0.00     0.163 HD
ATOM     62  CA  GLU C   5       5.736  21.213   8.198  1.00  0.00     0.090 C 
ATOM     63  HA  GLU C   5       6.311  22.260   8.240  1.00  0.00     0.087 H 
ATOM     64  C   GLU C   5       4.693  21.544   7.137  1.00  0.00     0.241 C 
ATOM     65  O   GLU C   5       4.458  20.751   6.220  1.00  0.00    -0.271 OA
ATOM     66  CB  GLU C   5       6.558  20.020   7.706  1.00  0.00    -0.029 C 
ATOM     67  HB2 GLU C   5       5.945  19.159   7.154  1.00  0.00     0.037 H 
ATOM     68  HB3 GLU C   5       7.140  20.370   8.684  1.00  0.00     0.037 H 
ATOM     69  CG  GLU C   5       7.827  20.438   6.928  1.00  0.00     0.018 C 
ATOM     70  HG2 GLU C   5       7.480  20.527   5.786  1.00  0.00     0.049 H 
ATOM     71  HG3 GLU C   5       8.461  21.450   7.038  1.00  0.00     0.049 H 
ATOM     72  CD  GLU C   5       8.946  19.402   6.696  1.00  0.00     0.172 C 
ATOM     73  OE1 GLU C   5       8.921  18.747   5.640  1.00  0.00    -0.648 OA
ATOM     74  OE2 GLU C   5       9.966  19.487   7.408  1.00  0.00    -0.648 OA
ATOM     75  N   VAL C   6       4.064  22.712   7.256  1.00  0.00    -0.346 N 
ATOM     76  H   VAL C   6       4.346  23.411   8.175  1.00  0.00     0.163 HD
ATOM     77  CA  VAL C   6       3.060  23.144   6.289  1.00  0.00     0.092 C 
ATOM     78  HA  VAL C   6       2.188  22.329   6.333  1.00  0.00     0.088 H 
ATOM     79  C   VAL C   6       3.605  23.055   4.870  1.00  0.00     0.241 C 
ATOM     80  O   VAL C   6       2.860  22.763   3.929  1.00  0.00    -0.271 OA
ATOM     81  CB  VAL C   6       2.646  24.593   6.555  1.00  0.00    -0.033 C 
ATOM     82  HB  VAL C   6       3.629  25.232   6.758  1.00  0.00     0.042 H 
ATOM     83  CG1 VAL C   6       1.734  25.119   5.445  1.00  0.00    -0.071 C 
ATOM     84 1HG1 VAL C   6       2.348  25.431   4.472  1.00  0.00     0.028 H 
ATOM     85 2HG1 VAL C   6       1.020  24.289   4.943  1.00  0.00     0.028 H 
ATOM     86 3HG1 VAL C   6       0.798  25.811   5.731  1.00  0.00     0.028 H 
ATOM     87  CG2 VAL C   6       1.829  24.603   7.841  1.00  0.00    -0.071 C 
ATOM     88 1HG2 VAL C   6       1.795  25.511   8.622  1.00  0.00     0.028 H 
ATOM     89 2HG2 VAL C   6       1.972  23.737   8.661  1.00  0.00     0.028 H 
ATOM     90 3HG2 VAL C   6       0.653  24.424   7.668  1.00  0.00     0.028 H 
ATOM     91  N   PHE C   7       4.904  23.307   4.713  1.00  0.00    -0.346 N 
ATOM     92  H   PHE C   7       5.713  23.770   5.451  1.00  0.00     0.163 HD
ATOM     93  CA  PHE C   7       5.545  23.235   3.406  1.00  0.00     0.093 C 
ATOM     94  HA  PHE C   7       6.713  23.477   3.344  1.00  0.00     0.088 H 
ATOM     95  C   PHE C   7       4.951  24.269   2.456  1.00  0.00     0.241 C 
ATOM     96  O   PHE C   7       4.452  23.920   1.382  1.00  0.00    -0.271 OA
ATOM     97  CB  PHE C   7       5.351  21.849   2.788  1.00  0.00    -0.014 C 
ATOM     98  HB2 PHE C   7       4.483  21.153   3.227  1.00  0.00     0.043 H 
ATOM     99  HB3 PHE C   7       6.346  21.343   3.218  1.00  0.00     0.043 H 
ATOM    100  CG  PHE C   7       5.310  21.098   1.472  1.00  0.00    -0.056 A 
ATOM    101  CD1 PHE C   7       4.174  21.220   0.658  1.00  0.00    -0.077 A 
ATOM    102  HD1 PHE C   7       3.095  21.671   0.864  1.00  0.00     0.084 H 
ATOM    103  CE1 PHE C   7       3.968  20.304  -0.388  1.00  0.00    -0.082 A 
ATOM    104  HE1 PHE C   7       2.919  20.035  -0.878  1.00  0.00     0.083 H 
ATOM    105  CZ  PHE C   7       5.009  19.437  -0.750  1.00  0.00    -0.083 A 
ATOM    106  HZ  PHE C   7       4.859  18.630  -1.609  1.00  0.00     0.083 H 
ATOM    107  CE2 PHE C   7       6.150  19.321   0.049  1.00  0.00    -0.082 A 
ATOM    108  HE2 PHE C   7       6.877  18.403  -0.152  1.00  0.00     0.083 H 
ATOM    109  CD2 PHE C   7       6.364  20.241   1.095  1.00  0.00    -0.077 A 
ATOM    110  HD2 PHE C   7       7.519  20.229   1.372  1.00  0.00     0.084 H 
ATOM    111  N   TYR C   8       5.003  25.542   2.845  1.00  0.00    -0.346 N 
ATOM    112  H   TYR C   8       5.955  25.874   3.477  1.00  0.00     0.163 HD
ATOM    113  CA  TYR C   8       4.474  26.638   1.996  1.00  0.00     0.088 C 
ATOM    114  HA  TYR C   8       3.308  26.382   1.990  1.00  0.00     0.087 H 
ATOM    115  C   TYR C   8       5.409  26.870   0.791  1.00  0.00     0.221 C 
ATOM    116  O   TYR C   8       6.634  26.892   0.943  1.00  0.00    -0.278 OA
ATOM    117  CB  TYR C   8       4.377  27.939   2.796  1.00  0.00    -0.014 C 
ATOM    118  HB2 TYR C   8       5.409  28.545   2.789  1.00  0.00     0.043 H 
ATOM    119  HB3 TYR C   8       3.677  28.713   2.204  1.00  0.00     0.043 H 
ATOM    120  CG  TYR C   8       3.885  27.990   4.216  1.00  0.00    -0.056 A 
ATOM    121  CD1 TYR C   8       2.536  27.754   4.537  1.00  0.00    -0.074 A 
ATOM    122  HD1 TYR C   8       1.652  28.174   3.860  1.00  0.00     0.084 H 
ATOM    123  CE1 TYR C   8       2.162  27.664   5.886  1.00  0.00    -0.051 A 
ATOM    124  HE1 TYR C   8       1.193  28.280   6.203  1.00  0.00     0.087 H 
ATOM    125  CZ  TYR C   8       3.148  27.764   6.896  1.00  0.00     0.065 A 
ATOM    126  OH  TYR C   8       2.833  27.512   8.199  1.00  0.00    -0.361 OA
ATOM    127  HH  TYR C   8       2.980  28.501   8.836  1.00  0.00     0.217 HD
ATOM    128  CE2 TYR C   8       4.470  28.120   6.570  1.00  0.00    -0.051 A 
ATOM    129  HE2 TYR C   8       5.302  28.370   7.380  1.00  0.00     0.087 H 
ATOM    130  CD2 TYR C   8       4.822  28.275   5.225  1.00  0.00    -0.074 A 
ATOM    131  HD2 TYR C   8       5.806  28.932   5.109  1.00  0.00     0.084 H 
ATOM    132  N   LYS C   9       4.546  26.132   0.205  1.00  0.00    -0.246 NA
ATOM    133  H   LYS C   9       3.394  26.098  -0.101  1.00  0.00     0.131 HD
ATOM    134  CA  LYS C   9       5.446  26.214  -0.946  1.00  0.00     0.083 C 
ATOM    135  HA  LYS C   9       6.622  26.005  -0.985  1.00  0.00     0.081 H 
ATOM    136  C   LYS C   9       5.417  27.680  -1.532  1.00  0.00     0.191 C 
ATOM    137  O   LYS C   9       4.546  28.498  -1.140  1.00  0.00    -0.647 OA
ATOM    138  CB  LYS C   9       5.010  25.222  -2.159  1.00  0.00    -0.041 C 
ATOM    139  HB2 LYS C   9       5.068  25.924  -3.126  1.00  0.00     0.036 H 
ATOM    140  HB3 LYS C   9       3.840  25.002  -2.055  1.00  0.00     0.036 H 
ATOM    141  CG  LYS C   9       5.797  23.936  -2.439  1.00  0.00    -0.062 C 
ATOM    142  HG2 LYS C   9       6.925  24.183  -2.749  1.00  0.00     0.033 H 
ATOM    143  HG3 LYS C   9       5.907  23.274  -1.453  1.00  0.00     0.033 H 
ATOM    144  CD  LYS C   9       4.979  23.409  -3.617  1.00  0.00    -0.043 C 
ATOM    145  HD2 LYS C   9       4.742  24.177  -4.504  1.00  0.00     0.035 H 
ATOM    146  HD3 LYS C   9       3.875  23.048  -3.322  1.00  0.00     0.035 H 
ATOM    147  CE  LYS C   9       5.566  22.128  -4.165  1.00  0.00     0.080 C 
ATOM    148  HE2 LYS C   9       4.738  21.393  -4.623  1.00  0.00     0.075 H 
ATOM    149  HE3 LYS C   9       6.160  21.431  -3.397  1.00  0.00     0.075 H 
ATOM    150  NZ  LYS C   9       6.382  22.519  -5.323  1.00  0.00    -0.079 N 
ATOM    151  HZ1 LYS C   9       6.874  21.559  -5.853  1.00  0.00     0.274 HD
ATOM    152  HZ2 LYS C   9       5.870  23.048  -6.271  1.00  0.00     0.274 HD
ATOM    153  HZ3 LYS C   9       7.391  23.114  -5.072  1.00  0.00     0.274 HD
ATOM    154  OXT LYS C   9       6.250  28.016  -2.381  1.00  0.00    -0.647 OA
ENDROOT
TORSDOF 43
