REMARK  0 active torsions:
REMARK  status: ('A' for Active; 'I' for Inactive)
REMARK       I    between atoms: N_1  and  CA_5 
REMARK       I    between atoms: CA_5  and  C_7 
REMARK       I    between atoms: CA_5  and  CB_9 
REMARK       I    between atoms: C_7  and  N_14 
REMARK       I    between atoms: CB_9  and  OG_12 
REMARK       I    between atoms: N_14  and  CA_16 
REMARK       I    between atoms: CA_16  and  CB_20 
REMARK       I    between atoms: CA_16  and  C_18 
REMARK       I    between atoms: C_18  and  N_28 
REMARK       I    between atoms: CB_20  and  CG2_22 
REMARK       I    between atoms: CB_20  and  OG1_26 
REMARK       I    between atoms: N_28  and  CA_30 
REMARK       I    between atoms: CA_30  and  CB_34 
REMARK       I    between atoms: CA_30  and  C_32 
REMARK       I    between atoms: C_32  and  N_48 
REMARK       I    between atoms: CB_34  and  CG_37 
REMARK       I    between atoms: N_48  and  CA_50 
REMARK       I    between atoms: CA_50  and  C_52 
REMARK       I    between atoms: CA_50  and  CB_54 
REMARK       I    between atoms: C_52  and  N_60 
REMARK       I    between atoms: CB_54  and  CG_57 
REMARK       I    between atoms: N_60  and  CA_62 
REMARK       I    between atoms: CA_62  and  CB_66 
REMARK       I    between atoms: CA_62  and  C_64 
REMARK       I    between atoms: C_64  and  N_75 
REMARK       I    between atoms: CB_66  and  CG_69 
REMARK       I    between atoms: CG_69  and  CD_72 
REMARK       I    between atoms: N_75  and  CA_77 
REMARK       I    between atoms: CA_77  and  C_79 
REMARK       I    between atoms: CA_77  and  CB_81 
REMARK       I    between atoms: C_79  and  N_91 
REMARK       I    between atoms: CB_81  and  CG1_83 
REMARK       I    between atoms: CB_81  and  CG2_87 
REMARK       I    between atoms: N_91  and  CA_93 
REMARK       I    between atoms: CA_93  and  CB_97 
REMARK       I    between atoms: CA_93  and  C_95 
REMARK       I    between atoms: C_95  and  N_111 
REMARK       I    between atoms: CB_97  and  CG_100 
REMARK       I    between atoms: N_111  and  CA_113 
REMARK       I    between atoms: CA_113  and  CB_117 
REMARK       I    between atoms: CA_113  and  C_115 
REMARK       I    between atoms: C_115  and  N_132 
REMARK       I    between atoms: CB_117  and  CG_120 
REMARK       I    between atoms: CZ_125  and  OH_126 
REMARK       I    between atoms: N_132  and  CA_134 
REMARK       I    between atoms: CA_134  and  CB_138 
REMARK       I    between atoms: CA_134  and  C_136 
REMARK       I    between atoms: CB_138  and  CG_141 
REMARK       I    between atoms: CG_141  and  CD_144 
REMARK       I    between atoms: CD_144  and  CE_147 
REMARK       I    between atoms: CE_147  and  NZ_150 
ROOT
ATOM      1  N   SER C   1       3.569  10.245  15.174  1.00  0.00    -0.064 N 
ATOM      2  H   SER C   1       3.380   9.409  16.012  1.00  0.00     0.275 HD
ATOM      3  H2  SER C   1       2.922   9.846  14.246  1.00  0.00     0.275 HD
ATOM      4  H3  SER C   1       4.708  10.056  14.855  1.00  0.00     0.275 HD
ATOM      5  CA  SER C   1       3.063  11.615  15.582  1.00  0.00     0.195 C 
ATOM      6  HA  SER C   1       1.883  11.548  15.741  1.00  0.00     0.102 H 
ATOM      7  C   SER C   1       3.501  12.536  14.439  1.00  0.00     0.251 C 
ATOM      8  O   SER C   1       4.647  12.524  13.986  1.00  0.00    -0.271 OA
ATOM      9  CB  SER C   1       3.799  12.126  16.857  1.00  0.00     0.051 C 
ATOM     10  HB2 SER C   1       3.199  13.033  17.353  1.00  0.00     0.077 H 
ATOM     11  HB3 SER C   1       4.980  12.289  16.773  1.00  0.00     0.077 H 
ATOM     12  OG  SER C   1       3.744  11.225  17.949  1.00  0.00    -0.398 OA
ATOM     13  HG  SER C   1       4.271  11.702  18.899  1.00  0.00     0.209 HD
ATOM     14  N   THR C   2       3.604  13.754  14.664  1.00  0.00    -0.344 N 
ATOM     15  H   THR C   2       4.198  14.425  15.446  1.00  0.00     0.163 HD
ATOM     16  CA  THR C   2       2.931  14.480  13.574  1.00  0.00     0.113 C 
ATOM     17  HA  THR C   2       2.823  13.693  12.682  1.00  0.00     0.091 H 
ATOM     18  C   THR C   2       3.790  15.611  13.053  1.00  0.00     0.243 C 
ATOM     19  O   THR C   2       4.642  16.137  13.777  1.00  0.00    -0.271 OA
ATOM     20  CB  THR C   2       1.609  15.078  14.061  1.00  0.00     0.060 C 
ATOM     21  HB  THR C   2       0.921  14.607  13.197  1.00  0.00     0.086 H 
ATOM     22  CG2 THR C   2       1.185  16.512  13.724  1.00  0.00    -0.050 C 
ATOM     23 1HG2 THR C   2       1.794  17.213  14.478  1.00  0.00     0.031 H 
ATOM     24 2HG2 THR C   2       0.058  16.640  14.122  1.00  0.00     0.031 H 
ATOM     25 3HG2 THR C   2       1.021  16.982  12.636  1.00  0.00     0.031 H 
ATOM     26  OG1 THR C   2       0.775  14.341  14.946  1.00  0.00    -0.393 OA
ATOM     27  HG1 THR C   2       0.619  14.926  15.966  1.00  0.00     0.210 HD
ATOM     28  N   PHE C   3       3.579  15.997  11.795  1.00  0.00    -0.346 N 
ATOM     29  H   PHE C   3       2.852  15.356  11.107  1.00  0.00     0.163 HD
ATOM     30  CA  PHE C   3       4.333  17.089  11.192  1.00  0.00     0.093 C 
ATOM     31  HA  PHE C   3       5.479  17.034  11.521  1.00  0.00     0.088 H 
ATOM     32  C   PHE C   3       3.653  18.426  11.458  1.00  0.00     0.241 C 
ATOM     33  O   PHE C   3       2.900  18.925  10.615  1.00  0.00    -0.271 OA
ATOM     34  CB  PHE C   3       4.440  16.897   9.678  1.00  0.00    -0.014 C 
ATOM     35  HB2 PHE C   3       3.588  16.174   9.248  1.00  0.00     0.043 H 
ATOM     36  HB3 PHE C   3       5.396  16.183   9.567  1.00  0.00     0.043 H 
ATOM     37  CG  PHE C   3       4.497  17.650   8.371  1.00  0.00    -0.056 A 
ATOM     38  CD1 PHE C   3       3.334  18.255   7.874  1.00  0.00    -0.077 A 
ATOM     39  HD1 PHE C   3       2.202  18.160   8.223  1.00  0.00     0.084 H 
ATOM     40  CE1 PHE C   3       3.307  18.695   6.538  1.00  0.00    -0.082 A 
ATOM     41  HE1 PHE C   3       2.296  18.932   5.958  1.00  0.00     0.083 H 
ATOM     42  CZ  PHE C   3       4.497  18.710   5.798  1.00  0.00    -0.083 A 
ATOM     43  HZ  PHE C   3       4.456  19.061   4.664  1.00  0.00     0.083 H 
ATOM     44  CE2 PHE C   3       5.661  18.119   6.299  1.00  0.00    -0.082 A 
ATOM     45  HE2 PHE C   3       6.486  17.737   5.535  1.00  0.00     0.083 H 
ATOM     46  CD2 PHE C   3       5.702  17.688   7.635  1.00  0.00    -0.077 A 
ATOM     47  HD2 PHE C   3       6.822  17.498   7.981  1.00  0.00     0.084 H 
ATOM     48  N   ASP C   4       3.912  19.011  12.626  1.00  0.00    -0.345 N 
ATOM     49  H   ASP C   4       4.853  18.524  13.157  1.00  0.00     0.163 HD
ATOM     50  CA  ASP C   4       3.333  20.301  12.981  1.00  0.00     0.098 C 
ATOM     51  HA  ASP C   4       2.249  20.543  12.543  1.00  0.00     0.088 H 
ATOM     52  C   ASP C   4       4.194  21.442  12.454  1.00  0.00     0.241 C 
ATOM     53  O   ASP C   4       4.020  22.597  12.856  1.00  0.00    -0.271 OA
ATOM     54  CB  ASP C   4       3.229  20.443  14.501  1.00  0.00     0.043 C 
ATOM     55  HB2 ASP C   4       2.190  20.002  14.899  1.00  0.00     0.052 H 
ATOM     56  HB3 ASP C   4       3.186  21.564  14.921  1.00  0.00     0.052 H 
ATOM     57  CG  ASP C   4       4.254  19.820  15.434  1.00  0.00     0.175 C 
ATOM     58  OD1 ASP C   4       5.274  19.388  14.856  1.00  0.00    -0.648 OA
ATOM     59  OD2 ASP C   4       4.106  19.967  16.666  1.00  0.00    -0.648 OA
ATOM     60  N   GLU C   5       5.123  21.127  11.552  1.00  0.00    -0.346 N 
ATOM     61  H   GLU C   5       5.473  20.087  11.104  1.00  0.00     0.163 HD
ATOM     62  CA  GLU C   5       5.991  22.139  10.963  1.00  0.00     0.090 C 
ATOM     63  HA  GLU C   5       6.212  22.933  11.825  1.00  0.00     0.087 H 
ATOM     64  C   GLU C   5       5.389  22.681   9.672  1.00  0.00     0.241 C 
ATOM     65  O   GLU C   5       5.740  22.228   8.578  1.00  0.00    -0.271 OA
ATOM     66  CB  GLU C   5       7.365  21.546  10.640  1.00  0.00    -0.029 C 
ATOM     67  HB2 GLU C   5       7.564  20.970   9.612  1.00  0.00     0.037 H 
ATOM     68  HB3 GLU C   5       7.726  20.768  11.475  1.00  0.00     0.037 H 
ATOM     69  CG  GLU C   5       8.509  22.560  10.781  1.00  0.00     0.018 C 
ATOM     70  HG2 GLU C   5       8.587  23.319   9.861  1.00  0.00     0.049 H 
ATOM     71  HG3 GLU C   5       8.550  23.268  11.744  1.00  0.00     0.049 H 
ATOM     72  CD  GLU C   5       9.931  21.985  10.842  1.00  0.00     0.172 C 
ATOM     73  OE1 GLU C   5      10.573  21.946   9.779  1.00  0.00    -0.648 OA
ATOM     74  OE2 GLU C   5      10.455  21.951  11.970  1.00  0.00    -0.648 OA
ATOM     75  N   VAL C   6       4.483  23.649   9.792  1.00  0.00    -0.346 N 
ATOM     76  H   VAL C   6       4.697  24.303  10.760  1.00  0.00     0.163 HD
ATOM     77  CA  VAL C   6       3.854  24.258   8.625  1.00  0.00     0.092 C 
ATOM     78  HA  VAL C   6       3.040  23.447   8.302  1.00  0.00     0.088 H 
ATOM     79  C   VAL C   6       4.906  24.737   7.633  1.00  0.00     0.241 C 
ATOM     80  O   VAL C   6       5.817  25.486   7.998  1.00  0.00    -0.271 OA
ATOM     81  CB  VAL C   6       3.003  25.461   9.040  1.00  0.00    -0.033 C 
ATOM     82  HB  VAL C   6       3.844  26.109   9.597  1.00  0.00     0.042 H 
ATOM     83  CG1 VAL C   6       2.767  26.600   8.048  1.00  0.00    -0.071 C 
ATOM     84 1HG1 VAL C   6       2.276  26.070   7.095  1.00  0.00     0.028 H 
ATOM     85 2HG1 VAL C   6       3.655  27.361   7.801  1.00  0.00     0.028 H 
ATOM     86 3HG1 VAL C   6       1.884  27.238   8.541  1.00  0.00     0.028 H 
ATOM     87  CG2 VAL C   6       2.203  25.454  10.345  1.00  0.00    -0.071 C 
ATOM     88 1HG2 VAL C   6       1.195  24.860  10.076  1.00  0.00     0.028 H 
ATOM     89 2HG2 VAL C   6       2.571  24.992  11.388  1.00  0.00     0.028 H 
ATOM     90 3HG2 VAL C   6       1.779  26.492  10.779  1.00  0.00     0.028 H 
ATOM     91  N   PHE C   7       4.782  24.307   6.379  1.00  0.00    -0.346 N 
ATOM     92  H   PHE C   7       3.885  23.629   5.991  1.00  0.00     0.163 HD
ATOM     93  CA  PHE C   7       5.716  24.712   5.335  1.00  0.00     0.093 C 
ATOM     94  HA  PHE C   7       6.380  25.674   5.572  1.00  0.00     0.088 H 
ATOM     95  C   PHE C   7       4.980  24.983   4.029  1.00  0.00     0.241 C 
ATOM     96  O   PHE C   7       4.740  24.063   3.241  1.00  0.00    -0.271 OA
ATOM     97  CB  PHE C   7       6.751  23.613   5.083  1.00  0.00    -0.014 C 
ATOM     98  HB2 PHE C   7       7.653  23.872   5.825  1.00  0.00     0.043 H 
ATOM     99  HB3 PHE C   7       6.327  22.573   5.491  1.00  0.00     0.043 H 
ATOM    100  CG  PHE C   7       7.530  22.962   3.959  1.00  0.00    -0.056 A 
ATOM    101  CD1 PHE C   7       6.876  22.127   3.043  1.00  0.00    -0.077 A 
ATOM    102  HD1 PHE C   7       5.742  21.818   2.874  1.00  0.00     0.084 H 
ATOM    103  CE1 PHE C   7       7.639  21.287   2.207  1.00  0.00    -0.082 A 
ATOM    104  HE1 PHE C   7       7.214  20.364   1.591  1.00  0.00     0.083 H 
ATOM    105  CZ  PHE C   7       9.029  21.456   2.145  1.00  0.00    -0.083 A 
ATOM    106  HZ  PHE C   7       9.671  20.927   1.296  1.00  0.00     0.083 H 
ATOM    107  CE2 PHE C   7       9.681  22.307   3.041  1.00  0.00    -0.082 A 
ATOM    108  HE2 PHE C   7      10.858  22.197   3.162  1.00  0.00     0.083 H 
ATOM    109  CD2 PHE C   7       8.929  23.152   3.874  1.00  0.00    -0.077 A 
ATOM    110  HD2 PHE C   7       9.559  24.117   4.163  1.00  0.00     0.084 H 
ATOM    111  N   TYR C   8       4.620  26.244   3.793  1.00  0.00    -0.346 N 
ATOM    112  H   TYR C   8       5.221  27.150   4.273  1.00  0.00     0.163 HD
ATOM    113  CA  TYR C   8       3.916  26.633   2.546  1.00  0.00     0.093 C 
ATOM    114  HA  TYR C   8       3.021  25.851   2.447  1.00  0.00     0.088 H 
ATOM    115  C   TYR C   8       4.909  26.665   1.367  1.00  0.00     0.241 C 
ATOM    116  O   TYR C   8       6.025  27.178   1.500  1.00  0.00    -0.271 OA
ATOM    117  CB  TYR C   8       3.288  28.020   2.694  1.00  0.00    -0.014 C 
ATOM    118  HB2 TYR C   8       2.416  28.165   1.886  1.00  0.00     0.043 H 
ATOM    119  HB3 TYR C   8       4.050  28.886   2.381  1.00  0.00     0.043 H 
ATOM    120  CG  TYR C   8       2.583  28.448   3.953  1.00  0.00    -0.056 A 
ATOM    121  CD1 TYR C   8       1.360  27.879   4.347  1.00  0.00    -0.074 A 
ATOM    122  HD1 TYR C   8       0.540  27.391   3.638  1.00  0.00     0.084 H 
ATOM    123  CE1 TYR C   8       0.836  28.191   5.616  1.00  0.00    -0.051 A 
ATOM    124  HE1 TYR C   8      -0.307  27.980   5.864  1.00  0.00     0.087 H 
ATOM    125  CZ  TYR C   8       1.543  29.070   6.458  1.00  0.00     0.065 A 
ATOM    126  OH  TYR C   8       1.110  29.292   7.738  1.00  0.00    -0.361 OA
ATOM    127  HH  TYR C   8       0.894  30.443   7.915  1.00  0.00     0.217 HD
ATOM    128  CE2 TYR C   8       2.699  29.729   6.013  1.00  0.00    -0.051 A 
ATOM    129  HE2 TYR C   8       3.243  30.592   6.624  1.00  0.00     0.087 H 
ATOM    130  CD2 TYR C   8       3.203  29.438   4.735  1.00  0.00    -0.074 A 
ATOM    131  HD2 TYR C   8       3.872  30.337   4.339  1.00  0.00     0.084 H 
ATOM    132  N   LYS C   9       4.546  26.132   0.205  1.00  0.00    -0.345 N 
ATOM    133  H   LYS C   9       3.408  25.826   0.053  1.00  0.00     0.163 HD
ATOM    134  CA  LYS C   9       5.446  26.214  -0.946  1.00  0.00     0.096 C 
ATOM    135  HA  LYS C   9       6.597  26.051  -0.685  1.00  0.00     0.089 H 
ATOM    136  C   LYS C   9       5.417  27.680  -1.532  1.00  0.00     0.196 C 
ATOM    137  O   LYS C   9       4.546  28.498  -1.140  1.00  0.00    -0.646 OA
ATOM    138  CB  LYS C   9       5.010  25.222  -2.159  1.00  0.00    -0.037 C 
ATOM    139  HB2 LYS C   9       3.833  25.057  -2.045  1.00  0.00     0.036 H 
ATOM    140  HB3 LYS C   9       5.142  25.931  -3.113  1.00  0.00     0.036 H 
ATOM    141  CG  LYS C   9       5.792  23.920  -2.415  1.00  0.00    -0.061 C 
ATOM    142  HG2 LYS C   9       6.950  24.127  -2.626  1.00  0.00     0.033 H 
ATOM    143  HG3 LYS C   9       5.756  23.226  -1.442  1.00  0.00     0.033 H 
ATOM    144  CD  LYS C   9       4.981  23.401  -3.604  1.00  0.00    -0.043 C 
ATOM    145  HD2 LYS C   9       4.618  24.082  -4.519  1.00  0.00     0.035 H 
ATOM    146  HD3 LYS C   9       3.946  22.982  -3.167  1.00  0.00     0.035 H 
ATOM    147  CE  LYS C   9       5.562  22.121  -4.151  1.00  0.00     0.080 C 
ATOM    148  HE2 LYS C   9       6.169  21.456  -3.362  1.00  0.00     0.075 H 
ATOM    149  HE3 LYS C   9       4.742  21.340  -4.542  1.00  0.00     0.075 H 
ATOM    150  NZ  LYS C   9       6.375  22.515  -5.308  1.00  0.00    -0.079 N 
ATOM    151  HZ1 LYS C   9       6.986  23.536  -5.471  1.00  0.00     0.274 HD
ATOM    152  HZ2 LYS C   9       5.779  22.405  -6.347  1.00  0.00     0.274 HD
ATOM    153  HZ3 LYS C   9       7.249  21.693  -5.385  1.00  0.00     0.274 HD
ATOM    154  OXT LYS C   9       6.236  28.070  -2.377  1.00  0.00    -0.646 OA
ENDROOT
TORSDOF 43
