REMARK  0 active torsions:
REMARK  status: ('A' for Active; 'I' for Inactive)
REMARK       I    between atoms: N_1  and  CA_5 
REMARK       I    between atoms: CA_5  and  CB_9 
REMARK       I    between atoms: CA_5  and  C_7 
REMARK       I    between atoms: C_7  and  CA_16 
REMARK       I    between atoms: CB_9  and  OG_12 
REMARK       I    between atoms: N_14  and  CA_16 
REMARK       I    between atoms: CB_20  and  OG1_26 
REMARK       I    between atoms: CA_30  and  CB_34 
REMARK       I    between atoms: CB_34  and  CG_37 
REMARK       I    between atoms: CA_50  and  C_52 
REMARK       I    between atoms: C_52  and  N_60 
REMARK       I    between atoms: N_60  and  CA_62 
REMARK       I    between atoms: CA_62  and  C_64 
REMARK       I    between atoms: CA_62  and  CB_66 
REMARK       I    between atoms: C_64  and  N_75 
REMARK       I    between atoms: CB_66  and  CG_69 
REMARK       I    between atoms: CG_69  and  CD_72 
REMARK       I    between atoms: N_75  and  CA_77 
REMARK       I    between atoms: CA_77  and  CB_81 
REMARK       I    between atoms: CA_77  and  C_79 
REMARK       I    between atoms: C_79  and  N_91 
REMARK       I    between atoms: CB_81  and  CG2_87 
REMARK       I    between atoms: CB_81  and  CG1_83 
REMARK       I    between atoms: N_91  and  CA_93 
REMARK       I    between atoms: CA_93  and  CB_97 
REMARK       I    between atoms: CA_93  and  C_95 
REMARK       I    between atoms: C_95  and  N_111 
REMARK       I    between atoms: CB_97  and  CG_100 
REMARK       I    between atoms: N_111  and  CA_113 
REMARK       I    between atoms: CA_113  and  CB_117 
REMARK       I    between atoms: CA_113  and  C_115 
REMARK       I    between atoms: C_115  and  N_132 
REMARK       I    between atoms: CB_117  and  CG_120 
REMARK       I    between atoms: CZ_125  and  OH_126 
REMARK       I    between atoms: N_132  and  CA_134 
REMARK       I    between atoms: CA_134  and  C_136 
REMARK       I    between atoms: CA_134  and  CB_138 
REMARK       I    between atoms: CB_138  and  CG_141 
REMARK       I    between atoms: CG_141  and  CD_144 
REMARK       I    between atoms: CD_144  and  CE_147 
REMARK       I    between atoms: CE_147  and  NZ_150 
ROOT
ATOM      1  N   SER C   1       3.569  10.245  15.174  1.00  0.00    -0.066 N 
ATOM      2  H   SER C   1       3.933   9.490  16.031  1.00  0.00     0.275 HD
ATOM      3  H2  SER C   1       2.620   9.668  14.718  1.00  0.00     0.275 HD
ATOM      4  H3  SER C   1       4.415  10.070  14.344  1.00  0.00     0.275 HD
ATOM      5  CA  SER C   1       3.063  11.615  15.582  1.00  0.00     0.180 C 
ATOM      6  HA  SER C   1       1.879  11.723  15.671  1.00  0.00     0.099 H 
ATOM      7  C   SER C   1       3.501  12.536  14.439  1.00  0.00     0.202 C 
ATOM      8  O   SER C   1       4.647  12.524  13.986  1.00  0.00    -0.292 OA
ATOM      9  CB  SER C   1       3.799  12.126  16.857  1.00  0.00     0.050 C 
ATOM     10  HB2 SER C   1       3.148  13.006  17.341  1.00  0.00     0.077 H 
ATOM     11  HB3 SER C   1       4.927  12.467  16.674  1.00  0.00     0.077 H 
ATOM     12  OG  SER C   1       3.754  11.238  17.957  1.00  0.00    -0.398 OA
ATOM     13  HG  SER C   1       4.839  11.096  18.413  1.00  0.00     0.209 HD
ATOM     14  N   THR C   2       2.140  14.132  12.962  1.00  0.00    -0.478 NA
ATOM     15  H   THR C   2       0.960  14.146  12.895  1.00  0.00     0.260 HD
ATOM     16  CA  THR C   2       3.556  14.539  12.950  1.00  0.00     0.180 C 
ATOM     17  HA  THR C   2       3.982  13.484  12.632  1.00  0.00     0.119 H 
ATOM     18  C   THR C   2       3.829  15.610  13.984  1.00  0.00     0.259 C 
ATOM     19  O   THR C   2       2.924  16.359  14.366  1.00  0.00    -0.270 OA
ATOM     20  CB  THR C   2       3.943  15.097  11.579  1.00  0.00     0.092 C 
ATOM     21  HB  THR C   2       4.964  14.536  11.274  1.00  0.00     0.091 H 
ATOM     22  CG2 THR C   2       4.668  16.423  11.409  1.00  0.00     0.024 C 
ATOM     23 1HG2 THR C   2       4.642  17.135  12.366  1.00  0.00     0.068 H 
ATOM     24 2HG2 THR C   2       3.608  16.920  11.097  1.00  0.00     0.068 H 
ATOM     25 3HG2 THR C   2       4.951  16.456  10.235  1.00  0.00     0.068 H 
ATOM     26  OG1 THR C   2       3.414  14.487  10.413  1.00  0.00    -0.390 OA
ATOM     27  HG1 THR C   2       3.226  13.327  10.572  1.00  0.00     0.210 HD
ATOM     28  N   PHE C   3       5.076  15.695  14.446  1.00  0.00    -0.345 N 
ATOM     29  H   PHE C   3       5.869  14.827  14.262  1.00  0.00     0.163 HD
ATOM     30  CA  PHE C   3       5.461  16.700  15.429  1.00  0.00     0.088 C 
ATOM     31  HA  PHE C   3       4.502  17.086  16.023  1.00  0.00     0.087 H 
ATOM     32  C   PHE C   3       6.115  17.897  14.750  1.00  0.00     0.221 C 
ATOM     33  O   PHE C   3       6.317  18.941  15.377  1.00  0.00    -0.278 OA
ATOM     34  CB  PHE C   3       6.456  16.116  16.434  1.00  0.00    -0.014 C 
ATOM     35  HB2 PHE C   3       7.520  15.935  15.920  1.00  0.00     0.043 H 
ATOM     36  HB3 PHE C   3       6.001  15.124  16.915  1.00  0.00     0.043 H 
ATOM     37  CG  PHE C   3       6.872  16.767  17.738  1.00  0.00    -0.056 A 
ATOM     38  CD1 PHE C   3       6.245  17.929  18.238  1.00  0.00    -0.077 A 
ATOM     39  HD1 PHE C   3       5.184  18.425  18.048  1.00  0.00     0.084 H 
ATOM     40  CE1 PHE C   3       6.717  18.535  19.403  1.00  0.00    -0.082 A 
ATOM     41  HE1 PHE C   3       6.298  19.554  19.850  1.00  0.00     0.083 H 
ATOM     42  CZ  PHE C   3       7.787  17.965  20.117  1.00  0.00    -0.083 A 
ATOM     43  HZ  PHE C   3       8.156  18.441  21.141  1.00  0.00     0.083 H 
ATOM     44  CE2 PHE C   3       8.383  16.780  19.651  1.00  0.00    -0.082 A 
ATOM     45  HE2 PHE C   3       9.296  16.346  20.275  1.00  0.00     0.083 H 
ATOM     46  CD2 PHE C   3       7.925  16.193  18.471  1.00  0.00    -0.077 A 
ATOM     47  HD2 PHE C   3       8.557  15.211  18.249  1.00  0.00     0.084 H 
ATOM     48  N   ASP C   4       6.447  17.753  13.468  1.00  0.00    -0.247 NA
ATOM     49  H   ASP C   4       7.334  16.955  13.514  1.00  0.00     0.131 HD
ATOM     50  CA  ASP C   4       7.060  18.836  12.709  1.00  0.00     0.085 C 
ATOM     51  HA  ASP C   4       7.963  19.280  13.353  1.00  0.00     0.079 H 
ATOM     52  C   ASP C   4       6.027  19.897  12.352  1.00  0.00     0.236 C 
ATOM     53  O   ASP C   4       4.860  19.577  12.105  1.00  0.00    -0.272 OA
ATOM     54  CB  ASP C   4       7.671  18.304  11.411  1.00  0.00     0.039 C 
ATOM     55  HB2 ASP C   4       7.667  19.021  10.454  1.00  0.00     0.051 H 
ATOM     56  HB3 ASP C   4       8.838  18.068  11.548  1.00  0.00     0.051 H 
ATOM     57  CG  ASP C   4       7.141  16.997  10.851  1.00  0.00     0.260 C 
ATOM     58  OD1 ASP C   4       6.206  16.469  11.481  1.00  0.00    -0.325 OA
ATOM     59  OD2 ASP C   4       7.623  16.561   9.764  1.00  0.00    -0.265 OA
ATOM     60  N   GLU C   5       6.448  21.160  12.322  1.00  0.00    -0.346 N 
ATOM     61  H   GLU C   5       7.581  21.445  12.543  1.00  0.00     0.163 HD
ATOM     62  CA  GLU C   5       5.554  22.257  11.974  1.00  0.00     0.090 C 
ATOM     63  HA  GLU C   5       4.667  22.092  12.756  1.00  0.00     0.087 H 
ATOM     64  C   GLU C   5       5.223  22.233  10.487  1.00  0.00     0.241 C 
ATOM     65  O   GLU C   5       5.994  21.702   9.682  1.00  0.00    -0.271 OA
ATOM     66  CB  GLU C   5       6.203  23.604  12.299  1.00  0.00    -0.029 C 
ATOM     67  HB2 GLU C   5       7.193  23.815  11.661  1.00  0.00     0.037 H 
ATOM     68  HB3 GLU C   5       6.553  23.636  13.442  1.00  0.00     0.037 H 
ATOM     69  CG  GLU C   5       5.354  24.866  12.099  1.00  0.00     0.018 C 
ATOM     70  HG2 GLU C   5       4.449  24.885  12.881  1.00  0.00     0.049 H 
ATOM     71  HG3 GLU C   5       4.916  25.296  11.077  1.00  0.00     0.049 H 
ATOM     72  CD  GLU C   5       6.081  26.159  12.490  1.00  0.00     0.172 C 
ATOM     73  OE1 GLU C   5       6.514  26.887  11.563  1.00  0.00    -0.648 OA
ATOM     74  OE2 GLU C   5       6.002  26.506  13.686  1.00  0.00    -0.648 OA
ATOM     75  N   VAL C   6       4.079  22.805  10.116  1.00  0.00    -0.346 N 
ATOM     76  H   VAL C   6       3.344  23.125  10.991  1.00  0.00     0.163 HD
ATOM     77  CA  VAL C   6       3.667  22.859   8.718  1.00  0.00     0.092 C 
ATOM     78  HA  VAL C   6       3.948  21.776   8.302  1.00  0.00     0.088 H 
ATOM     79  C   VAL C   6       4.445  23.932   7.968  1.00  0.00     0.241 C 
ATOM     80  O   VAL C   6       5.160  24.733   8.580  1.00  0.00    -0.271 OA
ATOM     81  CB  VAL C   6       2.176  23.183   8.608  1.00  0.00    -0.033 C 
ATOM     82  HB  VAL C   6       1.822  22.165   8.084  1.00  0.00     0.042 H 
ATOM     83  CG1 VAL C   6       1.777  24.119   7.475  1.00  0.00    -0.071 C 
ATOM     84 1HG1 VAL C   6       2.175  25.233   7.661  1.00  0.00     0.028 H 
ATOM     85 2HG1 VAL C   6       1.694  23.648   6.376  1.00  0.00     0.028 H 
ATOM     86 3HG1 VAL C   6       0.609  24.405   7.542  1.00  0.00     0.028 H 
ATOM     87  CG2 VAL C   6       1.148  23.035   9.739  1.00  0.00    -0.071 C 
ATOM     88 1HG2 VAL C   6       0.000  22.893   9.410  1.00  0.00     0.028 H 
ATOM     89 2HG2 VAL C   6       1.047  24.011  10.429  1.00  0.00     0.028 H 
ATOM     90 3HG2 VAL C   6       1.200  22.073  10.454  1.00  0.00     0.028 H 
ATOM     91  N   PHE C   7       4.310  23.952   6.643  1.00  0.00    -0.346 N 
ATOM     92  H   PHE C   7       4.177  22.914   6.075  1.00  0.00     0.163 HD
ATOM     93  CA  PHE C   7       4.989  24.944   5.818  1.00  0.00     0.093 C 
ATOM     94  HA  PHE C   7       5.028  25.976   6.416  1.00  0.00     0.088 H 
ATOM     95  C   PHE C   7       4.168  25.266   4.576  1.00  0.00     0.241 C 
ATOM     96  O   PHE C   7       3.135  24.636   4.326  1.00  0.00    -0.271 OA
ATOM     97  CB  PHE C   7       6.356  24.425   5.369  1.00  0.00    -0.014 C 
ATOM     98  HB2 PHE C   7       7.143  25.098   5.969  1.00  0.00     0.043 H 
ATOM     99  HB3 PHE C   7       6.687  23.327   5.713  1.00  0.00     0.043 H 
ATOM    100  CG  PHE C   7       6.820  24.306   3.922  1.00  0.00    -0.056 A 
ATOM    101  CD1 PHE C   7       6.103  23.567   2.967  1.00  0.00    -0.077 A 
ATOM    102  HD1 PHE C   7       5.357  22.676   3.216  1.00  0.00     0.084 H 
ATOM    103  CE1 PHE C   7       6.617  23.375   1.670  1.00  0.00    -0.082 A 
ATOM    104  HE1 PHE C   7       6.304  22.376   1.109  1.00  0.00     0.083 H 
ATOM    105  CZ  PHE C   7       7.838  23.962   1.307  1.00  0.00    -0.083 A 
ATOM    106  HZ  PHE C   7       8.504  23.521   0.428  1.00  0.00     0.083 H 
ATOM    107  CE2 PHE C   7       8.551  24.718   2.243  1.00  0.00    -0.082 A 
ATOM    108  HE2 PHE C   7       9.638  25.102   1.956  1.00  0.00     0.083 H 
ATOM    109  CD2 PHE C   7       8.022  24.926   3.528  1.00  0.00    -0.077 A 
ATOM    110  HD2 PHE C   7       8.779  25.576   4.174  1.00  0.00     0.084 H 
ATOM    111  N   TYR C   8       4.620  26.244   3.793  1.00  0.00    -0.346 N 
ATOM    112  H   TYR C   8       5.442  27.036   4.126  1.00  0.00     0.163 HD
ATOM    113  CA  TYR C   8       3.916  26.633   2.546  1.00  0.00     0.093 C 
ATOM    114  HA  TYR C   8       3.027  25.873   2.316  1.00  0.00     0.088 H 
ATOM    115  C   TYR C   8       4.909  26.665   1.367  1.00  0.00     0.241 C 
ATOM    116  O   TYR C   8       6.025  27.178   1.500  1.00  0.00    -0.271 OA
ATOM    117  CB  TYR C   8       3.288  28.020   2.694  1.00  0.00    -0.014 C 
ATOM    118  HB2 TYR C   8       2.418  28.118   1.879  1.00  0.00     0.043 H 
ATOM    119  HB3 TYR C   8       4.058  28.895   2.434  1.00  0.00     0.043 H 
ATOM    120  CG  TYR C   8       2.582  28.448   3.947  1.00  0.00    -0.056 A 
ATOM    121  CD1 TYR C   8       1.351  27.883   4.342  1.00  0.00    -0.074 A 
ATOM    122  HD1 TYR C   8       0.516  27.414   3.641  1.00  0.00     0.084 H 
ATOM    123  CE1 TYR C   8       0.844  28.176   5.615  1.00  0.00    -0.051 A 
ATOM    124  HE1 TYR C   8      -0.236  27.828   5.965  1.00  0.00     0.087 H 
ATOM    125  CZ  TYR C   8       1.555  29.053   6.468  1.00  0.00     0.065 A 
ATOM    126  OH  TYR C   8       1.141  29.264   7.735  1.00  0.00    -0.361 OA
ATOM    127  HH  TYR C   8       1.896  29.978   8.303  1.00  0.00     0.217 HD
ATOM    128  CE2 TYR C   8       2.718  29.716   6.008  1.00  0.00    -0.051 A 
ATOM    129  HE2 TYR C   8       3.259  30.630   6.541  1.00  0.00     0.087 H 
ATOM    130  CD2 TYR C   8       3.206  29.429   4.730  1.00  0.00    -0.074 A 
ATOM    131  HD2 TYR C   8       4.000  30.253   4.408  1.00  0.00     0.084 H 
ATOM    132  N   LYS C   9       4.546  26.132   0.205  1.00  0.00    -0.345 N 
ATOM    133  H   LYS C   9       3.483  25.621   0.053  1.00  0.00     0.163 HD
ATOM    134  CA  LYS C   9       5.446  26.214  -0.946  1.00  0.00     0.096 C 
ATOM    135  HA  LYS C   9       6.609  26.082  -0.730  1.00  0.00     0.089 H 
ATOM    136  C   LYS C   9       5.417  27.680  -1.532  1.00  0.00     0.196 C 
ATOM    137  O   LYS C   9       4.546  28.498  -1.140  1.00  0.00    -0.646 OA
ATOM    138  CB  LYS C   9       5.010  25.222  -2.159  1.00  0.00    -0.037 C 
ATOM    139  HB2 LYS C   9       5.166  25.919  -3.120  1.00  0.00     0.036 H 
ATOM    140  HB3 LYS C   9       3.821  25.132  -2.061  1.00  0.00     0.036 H 
ATOM    141  CG  LYS C   9       5.769  23.928  -2.415  1.00  0.00    -0.061 C 
ATOM    142  HG2 LYS C   9       5.732  23.172  -1.500  1.00  0.00     0.033 H 
ATOM    143  HG3 LYS C   9       6.886  24.153  -2.769  1.00  0.00     0.033 H 
ATOM    144  CD  LYS C   9       4.960  23.426  -3.598  1.00  0.00    -0.043 C 
ATOM    145  HD2 LYS C   9       3.927  22.989  -3.177  1.00  0.00     0.035 H 
ATOM    146  HD3 LYS C   9       4.565  24.084  -4.512  1.00  0.00     0.035 H 
ATOM    147  CE  LYS C   9       5.565  22.136  -4.139  1.00  0.00     0.080 C 
ATOM    148  HE2 LYS C   9       4.664  21.476  -4.576  1.00  0.00     0.075 H 
ATOM    149  HE3 LYS C   9       6.133  21.359  -3.429  1.00  0.00     0.075 H 
ATOM    150  NZ  LYS C   9       6.365  22.533  -5.295  1.00  0.00    -0.079 N 
ATOM    151  HZ1 LYS C   9       6.802  23.619  -5.556  1.00  0.00     0.274 HD
ATOM    152  HZ2 LYS C   9       7.386  21.901  -5.294  1.00  0.00     0.274 HD
ATOM    153  HZ3 LYS C   9       5.883  22.221  -6.349  1.00  0.00     0.274 HD
ATOM    154  OXT LYS C   9       6.319  27.928  -2.394  1.00  0.00    -0.646 OA
ENDROOT
TORSDOF 36
