REMARK  0 active torsions:
REMARK  status: ('A' for Active; 'I' for Inactive)
REMARK       I    between atoms: N_1  and  CA_5 
REMARK       I    between atoms: CA_5  and  C_7 
REMARK       I    between atoms: CA_5  and  CB_9 
REMARK       I    between atoms: C_7  and  N_14 
REMARK       I    between atoms: CB_9  and  OG_12 
REMARK       I    between atoms: N_14  and  CA_16 
REMARK       I    between atoms: CA_16  and  CB_20 
REMARK       I    between atoms: CA_16  and  C_18 
REMARK       I    between atoms: C_18  and  N_28 
REMARK       I    between atoms: CB_20  and  OG1_26 
REMARK       I    between atoms: CB_20  and  CG2_22 
REMARK       I    between atoms: N_28  and  CA_30 
REMARK       I    between atoms: CA_30  and  CB_34 
REMARK       I    between atoms: CA_30  and  C_32 
REMARK       I    between atoms: C_32  and  N_48 
REMARK       I    between atoms: CB_34  and  CG_37 
REMARK       I    between atoms: N_48  and  CA_50 
REMARK       I    between atoms: CA_50  and  CB_54 
REMARK       I    between atoms: CA_50  and  C_52 
REMARK       I    between atoms: C_52  and  N_60 
REMARK       I    between atoms: CB_54  and  CG_57 
REMARK       I    between atoms: N_60  and  CA_62 
REMARK       I    between atoms: CA_62  and  C_64 
REMARK       I    between atoms: CA_62  and  CB_66 
REMARK       I    between atoms: C_64  and  N_75 
REMARK       I    between atoms: CB_66  and  CG_69 
REMARK       I    between atoms: CG_69  and  CD_72 
REMARK       I    between atoms: N_75  and  CA_77 
REMARK       I    between atoms: CA_77  and  C_79 
REMARK       I    between atoms: CA_77  and  CB_81 
REMARK       I    between atoms: C_79  and  N_91 
REMARK       I    between atoms: CB_81  and  CG1_83 
REMARK       I    between atoms: CB_81  and  CG2_87 
REMARK       I    between atoms: N_91  and  CA_93 
REMARK       I    between atoms: CA_93  and  CB_97 
REMARK       I    between atoms: CA_93  and  C_95 
REMARK       I    between atoms: C_95  and  N_111 
REMARK       I    between atoms: CB_97  and  CG_100 
REMARK       I    between atoms: N_111  and  CA_113 
REMARK       I    between atoms: CA_113  and  C_115 
REMARK       I    between atoms: CA_113  and  CB_117 
REMARK       I    between atoms: C_115  and  N_132 
REMARK       I    between atoms: CB_117  and  CG_120 
REMARK       I    between atoms: CZ_125  and  OH_126 
REMARK       I    between atoms: N_132  and  CA_134 
REMARK       I    between atoms: CA_134  and  C_136 
REMARK       I    between atoms: CA_134  and  CB_138 
REMARK       I    between atoms: CB_138  and  CG_141 
REMARK       I    between atoms: CG_141  and  CD_144 
REMARK       I    between atoms: CD_144  and  CE_147 
REMARK       I    between atoms: CE_147  and  NZ_150 
ROOT
ATOM      1  N   SER C   1       3.569  10.245  15.174  1.00  0.00    -0.064 N 
ATOM      2  H   SER C   1       4.712  10.025  14.875  1.00  0.00     0.275 HD
ATOM      3  H2  SER C   1       3.333   9.388  15.976  1.00  0.00     0.275 HD
ATOM      4  H3  SER C   1       2.944   9.897  14.212  1.00  0.00     0.275 HD
ATOM      5  CA  SER C   1       3.063  11.615  15.582  1.00  0.00     0.195 C 
ATOM      6  HA  SER C   1       1.903  11.482  15.827  1.00  0.00     0.102 H 
ATOM      7  C   SER C   1       3.501  12.536  14.439  1.00  0.00     0.251 C 
ATOM      8  O   SER C   1       4.647  12.524  13.986  1.00  0.00    -0.271 OA
ATOM      9  CB  SER C   1       3.799  12.126  16.857  1.00  0.00     0.051 C 
ATOM     10  HB2 SER C   1       4.924  12.490  16.682  1.00  0.00     0.077 H 
ATOM     11  HB3 SER C   1       3.205  13.036  17.356  1.00  0.00     0.077 H 
ATOM     12  OG  SER C   1       3.748  11.230  17.953  1.00  0.00    -0.398 OA
ATOM     13  HG  SER C   1       4.729  11.327  18.615  1.00  0.00     0.209 HD
ATOM     14  N   THR C   2       2.645  13.462  14.123  1.00  0.00    -0.344 N 
ATOM     15  H   THR C   2       1.757  13.771  14.851  1.00  0.00     0.163 HD
ATOM     16  CA  THR C   2       2.846  14.378  12.987  1.00  0.00     0.113 C 
ATOM     17  HA  THR C   2       3.244  13.605  12.169  1.00  0.00     0.091 H 
ATOM     18  C   THR C   2       3.766  15.521  13.358  1.00  0.00     0.243 C 
ATOM     19  O   THR C   2       3.873  15.884  14.534  1.00  0.00    -0.271 OA
ATOM     20  CB  THR C   2       1.511  14.974  12.535  1.00  0.00     0.060 C 
ATOM     21  HB  THR C   2       1.610  14.705  11.369  1.00  0.00     0.086 H 
ATOM     22  CG2 THR C   2       1.330  16.474  12.276  1.00  0.00    -0.050 C 
ATOM     23 1HG2 THR C   2       1.131  16.947  13.360  1.00  0.00     0.031 H 
ATOM     24 2HG2 THR C   2       2.003  17.273  11.702  1.00  0.00     0.031 H 
ATOM     25 3HG2 THR C   2       0.280  16.636  11.717  1.00  0.00     0.031 H 
ATOM     26  OG1 THR C   2       0.349  14.154  12.524  1.00  0.00    -0.393 OA
ATOM     27  HG1 THR C   2      -0.469  14.586  13.268  1.00  0.00     0.210 HD
ATOM     28  N   PHE C   3       4.439  16.099  12.364  1.00  0.00    -0.346 N 
ATOM     29  H   PHE C   3       4.782  15.319  11.534  1.00  0.00     0.163 HD
ATOM     30  CA  PHE C   3       5.339  17.221  12.598  1.00  0.00     0.088 C 
ATOM     31  HA  PHE C   3       5.070  17.738  13.638  1.00  0.00     0.087 H 
ATOM     32  C   PHE C   3       5.069  18.345  11.606  1.00  0.00     0.221 C 
ATOM     33  O   PHE C   3       5.295  19.520  11.913  1.00  0.00    -0.278 OA
ATOM     34  CB  PHE C   3       6.796  16.783  12.442  1.00  0.00    -0.014 C 
ATOM     35  HB2 PHE C   3       7.141  16.398  11.366  1.00  0.00     0.043 H 
ATOM     36  HB3 PHE C   3       6.986  15.901  13.228  1.00  0.00     0.043 H 
ATOM     37  CG  PHE C   3       7.954  17.667  12.881  1.00  0.00    -0.056 A 
ATOM     38  CD1 PHE C   3       7.766  18.826  13.657  1.00  0.00    -0.077 A 
ATOM     39  HD1 PHE C   3       7.015  18.985  14.565  1.00  0.00     0.084 H 
ATOM     40  CE1 PHE C   3       8.853  19.644  13.999  1.00  0.00    -0.082 A 
ATOM     41  HE1 PHE C   3       8.754  20.695  14.544  1.00  0.00     0.083 H 
ATOM     42  CZ  PHE C   3      10.153  19.290  13.601  1.00  0.00    -0.083 A 
ATOM     43  HZ  PHE C   3      11.092  19.941  13.924  1.00  0.00     0.083 H 
ATOM     44  CE2 PHE C   3      10.354  18.114  12.861  1.00  0.00    -0.082 A 
ATOM     45  HE2 PHE C   3      11.471  17.825  12.579  1.00  0.00     0.083 H 
ATOM     46  CD2 PHE C   3       9.263  17.316  12.502  1.00  0.00    -0.077 A 
ATOM     47  HD2 PHE C   3       9.638  16.347  11.925  1.00  0.00     0.084 H 
ATOM     48  N   ASP C   4       4.585  17.993  10.416  1.00  0.00    -0.247 NA
ATOM     49  H   ASP C   4       5.359  17.258   9.886  1.00  0.00     0.131 HD
ATOM     50  CA  ASP C   4       4.271  18.984   9.394  1.00  0.00     0.085 C 
ATOM     51  HA  ASP C   4       5.256  19.559   9.042  1.00  0.00     0.080 H 
ATOM     52  C   ASP C   4       3.138  19.893   9.855  1.00  0.00     0.236 C 
ATOM     53  O   ASP C   4       1.967  19.502   9.824  1.00  0.00    -0.272 OA
ATOM     54  CB  ASP C   4       3.838  18.299   8.096  1.00  0.00     0.039 C 
ATOM     55  HB2 ASP C   4       4.721  18.207   7.293  1.00  0.00     0.052 H 
ATOM     56  HB3 ASP C   4       2.952  18.827   7.492  1.00  0.00     0.052 H 
ATOM     57  CG  ASP C   4       3.376  16.850   8.182  1.00  0.00     0.174 C 
ATOM     58  OD1 ASP C   4       3.259  16.311   9.301  1.00  0.00    -0.648 OA
ATOM     59  OD2 ASP C   4       3.021  16.338   7.076  1.00  0.00    -0.648 OA
ATOM     60  N   GLU C   5       3.478  21.108  10.284  1.00  0.00    -0.346 N 
ATOM     61  H   GLU C   5       4.633  21.363  10.403  1.00  0.00     0.163 HD
ATOM     62  CA  GLU C   5       2.479  22.070  10.731  1.00  0.00     0.090 C 
ATOM     63  HA  GLU C   5       1.425  21.585  11.012  1.00  0.00     0.087 H 
ATOM     64  C   GLU C   5       2.102  23.020   9.601  1.00  0.00     0.241 C 
ATOM     65  O   GLU C   5       0.920  23.315   9.397  1.00  0.00    -0.271 OA
ATOM     66  CB  GLU C   5       3.017  22.901  11.897  1.00  0.00    -0.029 C 
ATOM     67  HB2 GLU C   5       4.164  22.692  12.165  1.00  0.00     0.037 H 
ATOM     68  HB3 GLU C   5       2.421  22.390  12.803  1.00  0.00     0.037 H 
ATOM     69  CG  GLU C   5       2.950  24.377  12.318  1.00  0.00     0.018 C 
ATOM     70  HG2 GLU C   5       3.952  25.026  12.321  1.00  0.00     0.049 H 
ATOM     71  HG3 GLU C   5       1.927  24.904  12.002  1.00  0.00     0.049 H 
ATOM     72  CD  GLU C   5       2.973  24.503  13.864  1.00  0.00     0.172 C 
ATOM     73  OE1 GLU C   5       1.969  25.063  14.363  1.00  0.00    -0.648 OA
ATOM     74  OE2 GLU C   5       4.002  24.215  14.533  1.00  0.00    -0.648 OA
ATOM     75  N   VAL C   6       3.100  23.503   8.863  1.00  0.00    -0.346 N 
ATOM     76  H   VAL C   6       4.151  22.953   8.789  1.00  0.00     0.163 HD
ATOM     77  CA  VAL C   6       2.858  24.405   7.743  1.00  0.00     0.092 C 
ATOM     78  HA  VAL C   6       1.722  24.768   7.789  1.00  0.00     0.088 H 
ATOM     79  C   VAL C   6       3.254  23.749   6.427  1.00  0.00     0.241 C 
ATOM     80  O   VAL C   6       4.388  23.281   6.275  1.00  0.00    -0.271 OA
ATOM     81  CB  VAL C   6       3.673  25.690   7.902  1.00  0.00    -0.033 C 
ATOM     82  HB  VAL C   6       4.672  25.058   8.119  1.00  0.00     0.042 H 
ATOM     83  CG1 VAL C   6       4.092  26.367   6.609  1.00  0.00    -0.071 C 
ATOM     84 1HG1 VAL C   6       2.987  26.843   6.737  1.00  0.00     0.028 H 
ATOM     85 2HG1 VAL C   6       3.612  25.927   5.599  1.00  0.00     0.028 H 
ATOM     86 3HG1 VAL C   6       5.084  25.688   6.486  1.00  0.00     0.028 H 
ATOM     87  CG2 VAL C   6       3.929  26.235   9.310  1.00  0.00    -0.071 C 
ATOM     88 1HG2 VAL C   6       5.016  26.698   9.536  1.00  0.00     0.028 H 
ATOM     89 2HG2 VAL C   6       3.977  25.722  10.393  1.00  0.00     0.028 H 
ATOM     90 3HG2 VAL C   6       2.808  26.616   9.520  1.00  0.00     0.028 H 
ATOM     91  N   PHE C   7       2.324  23.712   5.474  1.00  0.00    -0.346 N 
ATOM     92  H   PHE C   7       1.193  24.038   5.653  1.00  0.00     0.163 HD
ATOM     93  CA  PHE C   7       2.590  23.127   4.166  1.00  0.00     0.088 C 
ATOM     94  HA  PHE C   7       3.418  22.268   4.199  1.00  0.00     0.087 H 
ATOM     95  C   PHE C   7       3.032  24.198   3.176  1.00  0.00     0.221 C 
ATOM     96  O   PHE C   7       2.939  24.005   1.960  1.00  0.00    -0.278 OA
ATOM     97  CB  PHE C   7       1.333  22.453   3.613  1.00  0.00    -0.014 C 
ATOM     98  HB2 PHE C   7       0.527  23.285   3.321  1.00  0.00     0.043 H 
ATOM     99  HB3 PHE C   7       0.948  21.702   4.460  1.00  0.00     0.043 H 
ATOM    100  CG  PHE C   7       1.190  21.501   2.443  1.00  0.00    -0.056 A 
ATOM    101  CD1 PHE C   7       2.279  21.072   1.657  1.00  0.00    -0.077 A 
ATOM    102  HD1 PHE C   7       3.397  20.840   1.987  1.00  0.00     0.084 H 
ATOM    103  CE1 PHE C   7       2.041  20.330   0.495  1.00  0.00    -0.082 A 
ATOM    104  HE1 PHE C   7       2.879  19.896  -0.226  1.00  0.00     0.083 H 
ATOM    105  CZ  PHE C   7       0.738  19.919   0.163  1.00  0.00    -0.083 A 
ATOM    106  HZ  PHE C   7       0.502  19.304  -0.824  1.00  0.00     0.083 H 
ATOM    107  CE2 PHE C   7      -0.344  20.280   0.993  1.00  0.00    -0.082 A 
ATOM    108  HE2 PHE C   7      -1.413  19.826   0.745  1.00  0.00     0.083 H 
ATOM    109  CD2 PHE C   7      -0.107  21.055   2.119  1.00  0.00    -0.077 A 
ATOM    110  HD2 PHE C   7      -1.120  21.214   2.720  1.00  0.00     0.084 H 
ATOM    111  N   TYR C   8       3.513  25.329   3.690  1.00  0.00    -0.247 NA
ATOM    112  H   TYR C   8       4.568  24.865   4.002  1.00  0.00     0.131 HD
ATOM    113  CA  TYR C   8       3.993  26.436   2.825  1.00  0.00     0.080 C 
ATOM    114  HA  TYR C   8       3.004  26.997   2.464  1.00  0.00     0.079 H 
ATOM    115  C   TYR C   8       4.790  25.868   1.634  1.00  0.00     0.236 C 
ATOM    116  O   TYR C   8       5.615  24.964   1.805  1.00  0.00    -0.272 OA
ATOM    117  CB  TYR C   8       4.901  27.381   3.616  1.00  0.00    -0.018 C 
ATOM    118  HB2 TYR C   8       4.880  28.418   3.015  1.00  0.00     0.043 H 
ATOM    119  HB3 TYR C   8       6.057  27.094   3.504  1.00  0.00     0.043 H 
ATOM    120  CG  TYR C   8       4.591  27.858   5.004  1.00  0.00    -0.059 A 
ATOM    121  CD1 TYR C   8       3.480  28.675   5.293  1.00  0.00    -0.075 A 
ATOM    122  HD1 TYR C   8       2.988  29.464   4.551  1.00  0.00     0.084 H 
ATOM    123  CE1 TYR C   8       3.121  28.909   6.636  1.00  0.00    -0.054 A 
ATOM    124  HE1 TYR C   8       2.273  29.716   6.847  1.00  0.00     0.087 H 
ATOM    125  CZ  TYR C   8       3.902  28.347   7.666  1.00  0.00     0.052 A 
ATOM    126  OH  TYR C   8       3.483  28.445   8.957  1.00  0.00    -0.364 OA
ATOM    127  HH  TYR C   8       3.628  29.565   9.328  1.00  0.00     0.217 HD
ATOM    128  CE2 TYR C   8       5.112  27.674   7.367  1.00  0.00     0.021 A 
ATOM    129  HE2 TYR C   8       6.021  28.196   7.941  1.00  0.00     0.058 H 
ATOM    130  CD2 TYR C   8       5.451  27.421   6.026  1.00  0.00    -0.086 A 
ATOM    131  HD2 TYR C   8       6.614  27.600   5.818  1.00  0.00     0.079 H 
ATOM    132  N   LYS C   9       4.546  26.132   0.205  1.00  0.00    -0.345 N 
ATOM    133  H   LYS C   9       3.400  26.374   0.006  1.00  0.00     0.163 HD
ATOM    134  CA  LYS C   9       5.446  26.214  -0.946  1.00  0.00     0.096 C 
ATOM    135  HA  LYS C   9       6.582  26.124  -0.600  1.00  0.00     0.089 H 
ATOM    136  C   LYS C   9       5.417  27.680  -1.532  1.00  0.00     0.196 C 
ATOM    137  O   LYS C   9       4.546  28.498  -1.140  1.00  0.00    -0.646 OA
ATOM    138  CB  LYS C   9       5.010  25.222  -2.159  1.00  0.00    -0.037 C 
ATOM    139  HB2 LYS C   9       3.837  25.074  -1.990  1.00  0.00     0.036 H 
ATOM    140  HB3 LYS C   9       5.134  25.925  -3.118  1.00  0.00     0.036 H 
ATOM    141  CG  LYS C   9       5.790  23.923  -2.417  1.00  0.00    -0.061 C 
ATOM    142  HG2 LYS C   9       6.948  24.142  -2.616  1.00  0.00     0.033 H 
ATOM    143  HG3 LYS C   9       5.786  23.203  -1.464  1.00  0.00     0.033 H 
ATOM    144  CD  LYS C   9       4.979  23.414  -3.601  1.00  0.00    -0.043 C 
ATOM    145  HD2 LYS C   9       3.934  23.022  -3.156  1.00  0.00     0.035 H 
ATOM    146  HD3 LYS C   9       4.607  24.095  -4.512  1.00  0.00     0.035 H 
ATOM    147  CE  LYS C   9       5.569  22.126  -4.149  1.00  0.00     0.080 C 
ATOM    148  HE2 LYS C   9       4.693  21.377  -4.479  1.00  0.00     0.075 H 
ATOM    149  HE3 LYS C   9       6.196  21.380  -3.452  1.00  0.00     0.075 H 
ATOM    150  NZ  LYS C   9       6.371  22.522  -5.303  1.00  0.00    -0.079 N 
ATOM    151  HZ1 LYS C   9       7.427  21.950  -5.310  1.00  0.00     0.274 HD
ATOM    152  HZ2 LYS C   9       5.858  22.138  -6.318  1.00  0.00     0.274 HD
ATOM    153  HZ3 LYS C   9       6.730  23.622  -5.617  1.00  0.00     0.274 HD
ATOM    154  OXT LYS C   9       6.311  27.988  -2.383  1.00  0.00    -0.646 OA
ENDROOT
TORSDOF 43
