REMARK  0 active torsions:
REMARK  status: ('A' for Active; 'I' for Inactive)
REMARK       I    between atoms: N_1  and  CA_5 
REMARK       I    between atoms: CA_5  and  CB_9 
REMARK       I    between atoms: CA_5  and  C_7 
REMARK       I    between atoms: C_7  and  N_14 
REMARK       I    between atoms: CB_9  and  OG_12 
REMARK       I    between atoms: N_14  and  CA_16 
REMARK       I    between atoms: CA_16  and  CB_20 
REMARK       I    between atoms: CA_16  and  C_18 
REMARK       I    between atoms: C_18  and  N_28 
REMARK       I    between atoms: CB_20  and  OG1_26 
REMARK       I    between atoms: CB_20  and  CG2_22 
REMARK       I    between atoms: N_28  and  CA_30 
REMARK       I    between atoms: CA_30  and  C_32 
REMARK       I    between atoms: CA_30  and  CB_34 
REMARK       I    between atoms: C_32  and  N_48 
REMARK       I    between atoms: CB_34  and  CG_37 
REMARK       I    between atoms: N_48  and  CA_50 
REMARK       I    between atoms: CA_50  and  CB_54 
REMARK       I    between atoms: CA_50  and  C_52 
REMARK       I    between atoms: C_52  and  N_60 
REMARK       I    between atoms: CB_54  and  CG_57 
REMARK       I    between atoms: N_60  and  CA_62 
REMARK       I    between atoms: CA_62  and  CB_66 
REMARK       I    between atoms: CA_62  and  C_64 
REMARK       I    between atoms: C_64  and  N_75 
REMARK       I    between atoms: CB_66  and  CG_69 
REMARK       I    between atoms: CG_69  and  CD_72 
REMARK       I    between atoms: N_75  and  CA_77 
REMARK       I    between atoms: CA_77  and  C_79 
REMARK       I    between atoms: CA_77  and  CB_81 
REMARK       I    between atoms: C_79  and  N_91 
REMARK       I    between atoms: CB_81  and  CG1_83 
REMARK       I    between atoms: CB_81  and  CG2_87 
REMARK       I    between atoms: N_91  and  CA_93 
REMARK       I    between atoms: CA_93  and  CB_97 
REMARK       I    between atoms: CA_93  and  C_95 
REMARK       I    between atoms: C_95  and  N_111 
REMARK       I    between atoms: CB_97  and  CG_100 
REMARK       I    between atoms: N_111  and  CA_113 
REMARK       I    between atoms: CA_113  and  CB_117 
REMARK       I    between atoms: CA_113  and  C_115 
REMARK       I    between atoms: C_115  and  N_132 
REMARK       I    between atoms: CB_117  and  CG_120 
REMARK       I    between atoms: CZ_125  and  OH_126 
REMARK       I    between atoms: N_132  and  CA_134 
REMARK       I    between atoms: CA_134  and  CB_138 
REMARK       I    between atoms: CA_134  and  C_136 
REMARK       I    between atoms: CB_138  and  CG_141 
REMARK       I    between atoms: CG_141  and  CD_144 
REMARK       I    between atoms: CD_144  and  CE_147 
REMARK       I    between atoms: CE_147  and  NZ_150 
ROOT
ATOM      1  N   SER C   1       3.569  10.245  15.174  1.00  0.00    -0.064 N 
ATOM      2  H   SER C   1       4.745  10.025  15.122  1.00  0.00     0.275 HD
ATOM      3  H2  SER C   1       3.142   9.932  14.098  1.00  0.00     0.275 HD
ATOM      4  H3  SER C   1       3.132   9.398  15.902  1.00  0.00     0.275 HD
ATOM      5  CA  SER C   1       3.063  11.615  15.582  1.00  0.00     0.195 C 
ATOM      6  HA  SER C   1       1.875  11.643  15.668  1.00  0.00     0.102 H 
ATOM      7  C   SER C   1       3.501  12.536  14.439  1.00  0.00     0.251 C 
ATOM      8  O   SER C   1       4.647  12.524  13.986  1.00  0.00    -0.271 OA
ATOM      9  CB  SER C   1       3.799  12.126  16.857  1.00  0.00     0.051 C 
ATOM     10  HB2 SER C   1       4.931  12.479  16.706  1.00  0.00     0.077 H 
ATOM     11  HB3 SER C   1       3.177  13.036  17.321  1.00  0.00     0.077 H 
ATOM     12  OG  SER C   1       3.738  11.221  17.946  1.00  0.00    -0.398 OA
ATOM     13  HG  SER C   1       4.630  11.428  18.700  1.00  0.00     0.209 HD
ATOM     14  N   THR C   2       3.066  14.151  13.628  1.00  0.00    -0.344 N 
ATOM     15  H   THR C   2       3.110  14.568  14.739  1.00  0.00     0.163 HD
ATOM     16  CA  THR C   2       2.654  15.242  12.727  1.00  0.00     0.113 C 
ATOM     17  HA  THR C   2       2.899  14.623  11.735  1.00  0.00     0.091 H 
ATOM     18  C   THR C   2       3.552  16.450  12.879  1.00  0.00     0.243 C 
ATOM     19  O   THR C   2       4.158  16.652  13.936  1.00  0.00    -0.271 OA
ATOM     20  CB  THR C   2       1.220  15.678  13.032  1.00  0.00     0.060 C 
ATOM     21  HB  THR C   2       0.824  15.549  11.906  1.00  0.00     0.086 H 
ATOM     22  CG2 THR C   2       0.818  17.154  13.144  1.00  0.00    -0.050 C 
ATOM     23 1HG2 THR C   2      -0.321  17.180  13.528  1.00  0.00     0.031 H 
ATOM     24 2HG2 THR C   2       0.674  17.833  12.168  1.00  0.00     0.031 H 
ATOM     25 3HG2 THR C   2       1.354  17.696  14.066  1.00  0.00     0.031 H 
ATOM     26  OG1 THR C   2       0.247  14.690  13.352  1.00  0.00    -0.393 OA
ATOM     27  HG1 THR C   2      -0.013  14.732  14.508  1.00  0.00     0.210 HD
ATOM     28  N   PHE C   3       3.648  17.264  11.829  1.00  0.00    -0.346 N 
ATOM     29  H   PHE C   3       3.154  16.948  10.795  1.00  0.00     0.163 HD
ATOM     30  CA  PHE C   3       4.468  18.468  11.866  1.00  0.00     0.093 C 
ATOM     31  HA  PHE C   3       5.362  18.183  12.604  1.00  0.00     0.088 H 
ATOM     32  C   PHE C   3       3.622  19.686  12.217  1.00  0.00     0.241 C 
ATOM     33  O   PHE C   3       2.451  19.768  11.834  1.00  0.00    -0.271 OA
ATOM     34  CB  PHE C   3       5.122  18.716  10.505  1.00  0.00    -0.014 C 
ATOM     35  HB2 PHE C   3       4.854  17.924   9.647  1.00  0.00     0.043 H 
ATOM     36  HB3 PHE C   3       6.253  18.388  10.706  1.00  0.00     0.043 H 
ATOM     37  CG  PHE C   3       5.094  19.903   9.582  1.00  0.00    -0.056 A 
ATOM     38  CD1 PHE C   3       3.894  20.400   9.064  1.00  0.00    -0.077 A 
ATOM     39  HD1 PHE C   3       2.846  19.839   9.098  1.00  0.00     0.084 H 
ATOM     40  CE1 PHE C   3       3.942  21.361   8.036  1.00  0.00    -0.082 A 
ATOM     41  HE1 PHE C   3       2.935  21.337   7.401  1.00  0.00     0.083 H 
ATOM     42  CZ  PHE C   3       5.189  21.843   7.622  1.00  0.00    -0.083 A 
ATOM     43  HZ  PHE C   3       4.691  22.374   6.690  1.00  0.00     0.083 H 
ATOM     44  CE2 PHE C   3       6.387  21.376   8.178  1.00  0.00    -0.082 A 
ATOM     45  HE2 PHE C   3       7.397  21.298   7.557  1.00  0.00     0.083 H 
ATOM     46  CD2 PHE C   3       6.334  20.447   9.225  1.00  0.00    -0.077 A 
ATOM     47  HD2 PHE C   3       7.408  20.004   9.485  1.00  0.00     0.084 H 
ATOM     48  N   ASP C   4       4.208  20.635  12.946  1.00  0.00    -0.345 N 
ATOM     49  H   ASP C   4       4.958  20.077  13.679  1.00  0.00     0.163 HD
ATOM     50  CA  ASP C   4       3.503  21.853  13.326  1.00  0.00     0.098 C 
ATOM     51  HA  ASP C   4       2.355  21.959  13.019  1.00  0.00     0.088 H 
ATOM     52  C   ASP C   4       4.139  23.071  12.670  1.00  0.00     0.241 C 
ATOM     53  O   ASP C   4       3.579  24.171  12.712  1.00  0.00    -0.271 OA
ATOM     54  CB  ASP C   4       3.547  22.048  14.843  1.00  0.00     0.043 C 
ATOM     55  HB2 ASP C   4       3.300  23.147  15.235  1.00  0.00     0.052 H 
ATOM     56  HB3 ASP C   4       2.700  21.357  15.329  1.00  0.00     0.052 H 
ATOM     57  CG  ASP C   4       4.756  21.660  15.677  1.00  0.00     0.175 C 
ATOM     58  OD1 ASP C   4       5.772  21.452  14.963  1.00  0.00    -0.648 OA
ATOM     59  OD2 ASP C   4       4.720  21.824  16.923  1.00  0.00    -0.648 OA
ATOM     60  N   GLU C   5       5.309  22.884  12.061  1.00  0.00    -0.346 N 
ATOM     61  H   GLU C   5       6.017  21.946  12.219  1.00  0.00     0.163 HD
ATOM     62  CA  GLU C   5       6.002  23.972  11.382  1.00  0.00     0.090 C 
ATOM     63  HA  GLU C   5       5.980  24.826  12.216  1.00  0.00     0.087 H 
ATOM     64  C   GLU C   5       5.432  24.186   9.986  1.00  0.00     0.241 C 
ATOM     65  O   GLU C   5       5.573  23.326   9.111  1.00  0.00    -0.271 OA
ATOM     66  CB  GLU C   5       7.494  23.659  11.248  1.00  0.00    -0.029 C 
ATOM     67  HB2 GLU C   5       7.898  22.881  10.439  1.00  0.00     0.037 H 
ATOM     68  HB3 GLU C   5       7.948  23.265  12.284  1.00  0.00     0.037 H 
ATOM     69  CG  GLU C   5       8.397  24.882  11.042  1.00  0.00     0.018 C 
ATOM     70  HG2 GLU C   5       8.347  25.392   9.964  1.00  0.00     0.049 H 
ATOM     71  HG3 GLU C   5       8.279  25.787  11.815  1.00  0.00     0.049 H 
ATOM     72  CD  GLU C   5       9.896  24.610  11.183  1.00  0.00     0.172 C 
ATOM     73  OE1 GLU C   5      10.550  24.429  10.136  1.00  0.00    -0.648 OA
ATOM     74  OE2 GLU C   5      10.406  24.903  12.284  1.00  0.00    -0.648 OA
ATOM     75  N   VAL C   6       4.786  25.331   9.769  1.00  0.00    -0.346 N 
ATOM     76  H   VAL C   6       4.969  26.125  10.634  1.00  0.00     0.163 HD
ATOM     77  CA  VAL C   6       4.215  25.654   8.466  1.00  0.00     0.092 C 
ATOM     78  HA  VAL C   6       3.264  24.936   8.397  1.00  0.00     0.088 H 
ATOM     79  C   VAL C   6       5.291  25.649   7.389  1.00  0.00     0.241 C 
ATOM     80  O   VAL C   6       6.321  26.317   7.528  1.00  0.00    -0.271 OA
ATOM     81  CB  VAL C   6       3.568  27.041   8.492  1.00  0.00    -0.033 C 
ATOM     82  HB  VAL C   6       4.580  27.566   8.861  1.00  0.00     0.042 H 
ATOM     83  CG1 VAL C   6       3.581  27.867   7.211  1.00  0.00    -0.071 C 
ATOM     84 1HG1 VAL C   6       3.648  28.959   7.705  1.00  0.00     0.028 H 
ATOM     85 2HG1 VAL C   6       2.786  27.149   6.686  1.00  0.00     0.028 H 
ATOM     86 3HG1 VAL C   6       4.552  27.977   6.519  1.00  0.00     0.028 H 
ATOM     87  CG2 VAL C   6       2.850  27.541   9.750  1.00  0.00    -0.071 C 
ATOM     88 1HG2 VAL C   6       2.208  26.653  10.239  1.00  0.00     0.028 H 
ATOM     89 2HG2 VAL C   6       3.398  28.086  10.669  1.00  0.00     0.028 H 
ATOM     90 3HG2 VAL C   6       1.952  28.329   9.644  1.00  0.00     0.028 H 
ATOM     91  N   PHE C   7       5.057  24.897   6.315  1.00  0.00    -0.346 N 
ATOM     92  H   PHE C   7       3.948  24.591   6.011  1.00  0.00     0.163 HD
ATOM     93  CA  PHE C   7       6.004  24.827   5.209  1.00  0.00     0.088 C 
ATOM     94  HA  PHE C   7       6.948  25.556   5.156  1.00  0.00     0.087 H 
ATOM     95  C   PHE C   7       5.306  25.106   3.883  1.00  0.00     0.221 C 
ATOM     96  O   PHE C   7       5.387  24.301   2.950  1.00  0.00    -0.278 OA
ATOM     97  CB  PHE C   7       6.639  23.436   5.133  1.00  0.00    -0.014 C 
ATOM     98  HB2 PHE C   7       7.459  23.468   5.998  1.00  0.00     0.043 H 
ATOM     99  HB3 PHE C   7       5.671  22.748   5.056  1.00  0.00     0.043 H 
ATOM    100  CG  PHE C   7       7.315  22.469   4.178  1.00  0.00    -0.056 A 
ATOM    101  CD1 PHE C   7       6.546  21.775   3.231  1.00  0.00    -0.077 A 
ATOM    102  HD1 PHE C   7       5.432  21.790   2.817  1.00  0.00     0.084 H 
ATOM    103  CE1 PHE C   7       7.095  20.641   2.587  1.00  0.00    -0.082 A 
ATOM    104  HE1 PHE C   7       6.466  19.785   2.055  1.00  0.00     0.083 H 
ATOM    105  CZ  PHE C   7       8.466  20.381   2.713  1.00  0.00    -0.083 A 
ATOM    106  HZ  PHE C   7       9.013  19.646   1.957  1.00  0.00     0.083 H 
ATOM    107  CE2 PHE C   7       9.239  21.085   3.638  1.00  0.00    -0.082 A 
ATOM    108  HE2 PHE C   7      10.303  20.652   3.940  1.00  0.00     0.083 H 
ATOM    109  CD2 PHE C   7       8.704  22.223   4.274  1.00  0.00    -0.077 A 
ATOM    110  HD2 PHE C   7       9.555  23.024   4.486  1.00  0.00     0.084 H 
ATOM    111  N   TYR C   8       4.620  26.244   3.793  1.00  0.00    -0.247 NA
ATOM    112  H   TYR C   8       5.288  27.163   4.144  1.00  0.00     0.131 HD
ATOM    113  CA  TYR C   8       3.916  26.633   2.546  1.00  0.00     0.080 C 
ATOM    114  HA  TYR C   8       3.051  25.816   2.457  1.00  0.00     0.079 H 
ATOM    115  C   TYR C   8       4.909  26.665   1.367  1.00  0.00     0.236 C 
ATOM    116  O   TYR C   8       6.025  27.178   1.500  1.00  0.00    -0.272 OA
ATOM    117  CB  TYR C   8       3.288  28.020   2.694  1.00  0.00    -0.018 C 
ATOM    118  HB2 TYR C   8       2.413  28.126   1.883  1.00  0.00     0.043 H 
ATOM    119  HB3 TYR C   8       4.026  28.896   2.352  1.00  0.00     0.043 H 
ATOM    120  CG  TYR C   8       2.571  28.456   3.942  1.00  0.00    -0.056 A 
ATOM    121  CD1 TYR C   8       1.352  27.877   4.338  1.00  0.00    -0.074 A 
ATOM    122  HD1 TYR C   8       0.541  27.377   3.629  1.00  0.00     0.084 H 
ATOM    123  CE1 TYR C   8       0.814  28.196   5.603  1.00  0.00    -0.051 A 
ATOM    124  HE1 TYR C   8      -0.299  27.875   5.870  1.00  0.00     0.087 H 
ATOM    125  CZ  TYR C   8       1.500  29.099   6.434  1.00  0.00     0.065 A 
ATOM    126  OH  TYR C   8       1.059  29.320   7.713  1.00  0.00    -0.361 OA
ATOM    127  HH  TYR C   8       0.252  30.192   7.704  1.00  0.00     0.217 HD
ATOM    128  CE2 TYR C   8       2.641  29.781   5.979  1.00  0.00    -0.051 A 
ATOM    129  HE2 TYR C   8       2.719  30.930   6.284  1.00  0.00     0.087 H 
ATOM    130  CD2 TYR C   8       3.180  29.458   4.720  1.00  0.00    -0.074 A 
ATOM    131  HD2 TYR C   8       3.866  30.337   4.306  1.00  0.00     0.084 H 
ATOM    132  N   LYS C   9       4.546  26.132   0.205  1.00  0.00    -0.345 N 
ATOM    133  H   LYS C   9       3.435  25.743   0.034  1.00  0.00     0.163 HD
ATOM    134  CA  LYS C   9       5.446  26.214  -0.946  1.00  0.00     0.096 C 
ATOM    135  HA  LYS C   9       6.595  26.048  -0.678  1.00  0.00     0.089 H 
ATOM    136  C   LYS C   9       5.417  27.680  -1.532  1.00  0.00     0.196 C 
ATOM    137  O   LYS C   9       4.546  28.498  -1.140  1.00  0.00    -0.646 OA
ATOM    138  CB  LYS C   9       5.010  25.222  -2.159  1.00  0.00    -0.037 C 
ATOM    139  HB2 LYS C   9       3.829  25.102  -2.090  1.00  0.00     0.036 H 
ATOM    140  HB3 LYS C   9       5.217  25.930  -3.100  1.00  0.00     0.036 H 
ATOM    141  CG  LYS C   9       5.796  23.920  -2.416  1.00  0.00    -0.061 C 
ATOM    142  HG2 LYS C   9       5.789  23.221  -1.447  1.00  0.00     0.033 H 
ATOM    143  HG3 LYS C   9       6.946  24.144  -2.650  1.00  0.00     0.033 H 
ATOM    144  CD  LYS C   9       4.987  23.394  -3.606  1.00  0.00    -0.043 C 
ATOM    145  HD2 LYS C   9       3.970  22.931  -3.166  1.00  0.00     0.035 H 
ATOM    146  HD3 LYS C   9       4.619  24.133  -4.470  1.00  0.00     0.035 H 
ATOM    147  CE  LYS C   9       5.562  22.115  -4.156  1.00  0.00     0.080 C 
ATOM    148  HE2 LYS C   9       4.708  21.399  -4.600  1.00  0.00     0.075 H 
ATOM    149  HE3 LYS C   9       6.145  21.372  -3.417  1.00  0.00     0.075 H 
ATOM    150  NZ  LYS C   9       6.378  22.508  -5.312  1.00  0.00    -0.079 N 
ATOM    151  HZ1 LYS C   9       7.522  22.732  -5.032  1.00  0.00     0.274 HD
ATOM    152  HZ2 LYS C   9       6.081  23.377  -6.083  1.00  0.00     0.274 HD
ATOM    153  HZ3 LYS C   9       6.486  21.576  -6.063  1.00  0.00     0.274 HD
ATOM    154  OXT LYS C   9       6.220  28.096  -2.375  1.00  0.00    -0.646 OA
ENDROOT
TORSDOF 43
