REMARK  0 active torsions:
REMARK  status: ('A' for Active; 'I' for Inactive)
REMARK       I    between atoms: N_1  and  CA_5 
REMARK       I    between atoms: CA_5  and  CB_9 
REMARK       I    between atoms: CA_5  and  C_7 
REMARK       I    between atoms: C_7  and  N_14 
REMARK       I    between atoms: CB_9  and  OG_12 
REMARK       I    between atoms: N_14  and  CA_16 
REMARK       I    between atoms: CA_16  and  CB_20 
REMARK       I    between atoms: CA_16  and  C_18 
REMARK       I    between atoms: C_18  and  N_28 
REMARK       I    between atoms: CB_20  and  OG1_26 
REMARK       I    between atoms: CB_20  and  CG2_22 
REMARK       I    between atoms: N_28  and  CA_30 
REMARK       I    between atoms: CA_50  and  CB_54 
REMARK       I    between atoms: CB_54  and  CG_57 
REMARK       I    between atoms: CB_66  and  CG_69 
REMARK       I    between atoms: CG_69  and  CD_72 
REMARK       I    between atoms: N_75  and  CA_77 
REMARK       I    between atoms: CA_77  and  CB_81 
REMARK       I    between atoms: CA_77  and  C_79 
REMARK       I    between atoms: C_79  and  N_91 
REMARK       I    between atoms: CB_81  and  CG2_87 
REMARK       I    between atoms: CB_81  and  CG1_83 
REMARK       I    between atoms: N_91  and  CA_93 
REMARK       I    between atoms: CA_93  and  CB_97 
REMARK       I    between atoms: CA_93  and  C_95 
REMARK       I    between atoms: C_95  and  N_111 
REMARK       I    between atoms: CB_97  and  CG_100 
REMARK       I    between atoms: N_111  and  CA_113 
REMARK       I    between atoms: CA_113  and  CB_117 
REMARK       I    between atoms: CA_113  and  C_115 
REMARK       I    between atoms: C_115  and  N_132 
REMARK       I    between atoms: CB_117  and  CG_120 
REMARK       I    between atoms: CZ_125  and  OH_126 
REMARK       I    between atoms: N_132  and  CA_134 
REMARK       I    between atoms: CA_134  and  CB_138 
REMARK       I    between atoms: CA_134  and  C_136 
REMARK       I    between atoms: CB_138  and  CG_141 
REMARK       I    between atoms: CG_141  and  CD_144 
REMARK       I    between atoms: CD_144  and  CE_147 
REMARK       I    between atoms: CE_147  and  NZ_150 
ROOT
ATOM      1  N   SER C   1       3.569  10.245  15.174  1.00  0.00    -0.064 N 
ATOM      2  H   SER C   1       2.792   9.385  15.488  1.00  0.00     0.275 HD
ATOM      3  H2  SER C   1       3.703  10.011  14.005  1.00  0.00     0.275 HD
ATOM      4  H3  SER C   1       4.606   9.852  15.631  1.00  0.00     0.275 HD
ATOM      5  CA  SER C   1       3.063  11.615  15.582  1.00  0.00     0.195 C 
ATOM      6  HA  SER C   1       1.922  11.445  15.892  1.00  0.00     0.102 H 
ATOM      7  C   SER C   1       3.501  12.536  14.439  1.00  0.00     0.251 C 
ATOM      8  O   SER C   1       4.647  12.524  13.986  1.00  0.00    -0.271 OA
ATOM      9  CB  SER C   1       3.799  12.126  16.857  1.00  0.00     0.051 C 
ATOM     10  HB2 SER C   1       4.949  12.419  16.710  1.00  0.00     0.077 H 
ATOM     11  HB3 SER C   1       3.241  13.061  17.353  1.00  0.00     0.077 H 
ATOM     12  OG  SER C   1       3.739  11.221  17.943  1.00  0.00    -0.398 OA
ATOM     13  HG  SER C   1       4.494  11.552  18.794  1.00  0.00     0.209 HD
ATOM     14  N   THR C   2       3.004  13.177  14.189  1.00  0.00    -0.344 N 
ATOM     15  H   THR C   2       1.991  13.410  14.786  1.00  0.00     0.163 HD
ATOM     16  CA  THR C   2       2.911  14.346  13.298  1.00  0.00     0.113 C 
ATOM     17  HA  THR C   2       3.771  14.167  12.488  1.00  0.00     0.091 H 
ATOM     18  C   THR C   2       3.244  15.626  14.033  1.00  0.00     0.243 C 
ATOM     19  O   THR C   2       3.087  15.706  15.256  1.00  0.00    -0.271 OA
ATOM     20  CB  THR C   2       1.496  14.480  12.733  1.00  0.00     0.060 C 
ATOM     21  HB  THR C   2       1.826  14.639  11.589  1.00  0.00     0.086 H 
ATOM     22  CG2 THR C   2       0.752  15.816  12.695  1.00  0.00    -0.050 C 
ATOM     23 1HG2 THR C   2       0.038  15.810  11.729  1.00  0.00     0.031 H 
ATOM     24 2HG2 THR C   2       0.887  16.981  12.890  1.00  0.00     0.031 H 
ATOM     25 3HG2 THR C   2      -0.057  15.575  13.550  1.00  0.00     0.031 H 
ATOM     26  OG1 THR C   2       0.785  13.316  12.349  1.00  0.00    -0.393 OA
ATOM     27  HG1 THR C   2       1.524  12.450  12.021  1.00  0.00     0.210 HD
ATOM     28  N   PHE C   3       3.706  16.638  13.300  1.00  0.00    -0.346 N 
ATOM     29  H   PHE C   3       3.909  16.520  12.134  1.00  0.00     0.163 HD
ATOM     30  CA  PHE C   3       4.041  17.925  13.897  1.00  0.00     0.093 C 
ATOM     31  HA  PHE C   3       4.167  17.755  15.072  1.00  0.00     0.088 H 
ATOM     32  C   PHE C   3       2.918  18.931  13.675  1.00  0.00     0.241 C 
ATOM     33  O   PHE C   3       2.030  18.708  12.846  1.00  0.00    -0.271 OA
ATOM     34  CB  PHE C   3       5.320  18.489  13.274  1.00  0.00    -0.014 C 
ATOM     35  HB2 PHE C   3       6.099  18.371  14.176  1.00  0.00     0.043 H 
ATOM     36  HB3 PHE C   3       5.868  17.799  12.462  1.00  0.00     0.043 H 
ATOM     37  CG  PHE C   3       5.550  19.802  12.616  1.00  0.00    -0.057 A 
ATOM     38  CD1 PHE C   3       4.791  20.110  11.494  1.00  0.00    -0.068 A 
ATOM     39  HD1 PHE C   3       4.265  19.235  10.881  1.00  0.00     0.081 H 
ATOM     40  CE1 PHE C   3       5.201  21.209  10.742  1.00  0.00     0.070 A 
ATOM     41  HE1 PHE C   3       5.814  20.623   9.890  1.00  0.00     0.091 H 
ATOM     42  CZ  PHE C   3       6.204  22.063  11.228  1.00  0.00    -0.007 A 
ATOM     43  HZ  PHE C   3       7.052  22.180  10.392  1.00  0.00     0.050 H 
ATOM     44  CE2 PHE C   3       6.908  21.779  12.406  1.00  0.00    -0.096 A 
ATOM     45  HE2 PHE C   3       8.085  21.909  12.556  1.00  0.00     0.077 H 
ATOM     46  CD2 PHE C   3       6.536  20.650  13.136  1.00  0.00    -0.080 A 
ATOM     47  HD2 PHE C   3       7.147  20.523  14.149  1.00  0.00     0.083 H 
ATOM     48  N   ASP C   4       2.951  20.040  14.412  1.00  0.00    -0.346 N 
ATOM     49  H   ASP C   4       3.998  20.206  14.943  1.00  0.00     0.163 HD
ATOM     50  CA  ASP C   4       1.941  21.082  14.273  1.00  0.00     0.093 C 
ATOM     51  HA  ASP C   4       0.877  20.793  13.814  1.00  0.00     0.087 H 
ATOM     52  C   ASP C   4       2.473  22.241  13.439  1.00  0.00     0.221 C 
ATOM     53  O   ASP C   4       2.165  23.405  13.715  1.00  0.00    -0.278 OA
ATOM     54  CB  ASP C   4       1.534  21.624  15.645  1.00  0.00     0.042 C 
ATOM     55  HB2 ASP C   4       0.711  20.888  16.110  1.00  0.00     0.052 H 
ATOM     56  HB3 ASP C   4       1.002  22.692  15.720  1.00  0.00     0.052 H 
ATOM     57  CG  ASP C   4       2.530  21.619  16.804  1.00  0.00     0.175 C 
ATOM     58  OD1 ASP C   4       3.689  21.227  16.553  1.00  0.00    -0.648 OA
ATOM     59  OD2 ASP C   4       2.120  22.097  17.901  1.00  0.00    -0.648 OA
ATOM     60  N   GLU C   5       3.272  21.932  12.419  1.00  0.00    -0.249 NA
ATOM     61  H   GLU C   5       2.490  21.314  11.764  1.00  0.00     0.131 HD
ATOM     62  CA  GLU C   5       3.825  22.955  11.542  1.00  0.00     0.061 C 
ATOM     63  HA  GLU C   5       3.174  23.953  11.627  1.00  0.00     0.077 H 
ATOM     64  C   GLU C   5       3.712  22.533  10.082  1.00  0.00     0.133 C 
ATOM     65  O   GLU C   5       4.046  21.397   9.730  1.00  0.00    -0.328 OA
ATOM     66  CB  GLU C   5       5.302  23.195  11.859  1.00  0.00    -0.028 C 
ATOM     67  HB2 GLU C   5       4.762  23.419  12.924  1.00  0.00     0.037 H 
ATOM     68  HB3 GLU C   5       6.212  23.394  12.636  1.00  0.00     0.037 H 
ATOM     69  CG  GLU C   5       5.921  24.485  11.275  1.00  0.00     0.018 C 
ATOM     70  HG2 GLU C   5       5.372  25.502  11.595  1.00  0.00     0.049 H 
ATOM     71  HG3 GLU C   5       6.033  24.682  10.100  1.00  0.00     0.049 H 
ATOM     72  CD  GLU C   5       7.358  24.788  11.723  1.00  0.00     0.172 C 
ATOM     73  OE1 GLU C   5       8.306  24.449  10.977  1.00  0.00    -0.648 OA
ATOM     74  OE2 GLU C   5       7.481  25.542  12.717  1.00  0.00    -0.648 OA
ATOM     75  N   VAL C   6       3.243  23.441   9.228  1.00  0.00    -0.359 N 
ATOM     76  H   VAL C   6       3.005  24.573   9.506  1.00  0.00     0.162 HD
ATOM     77  CA  VAL C   6       3.109  23.156   7.803  1.00  0.00     0.091 C 
ATOM     78  HA  VAL C   6       3.351  22.032   7.487  1.00  0.00     0.088 H 
ATOM     79  C   VAL C   6       3.832  24.209   6.973  1.00  0.00     0.241 C 
ATOM     80  O   VAL C   6       3.465  25.388   6.997  1.00  0.00    -0.271 OA
ATOM     81  CB  VAL C   6       1.635  23.149   7.392  1.00  0.00    -0.033 C 
ATOM     82  HB  VAL C   6       1.317  24.266   7.679  1.00  0.00     0.042 H 
ATOM     83  CG1 VAL C   6       1.243  23.356   5.926  1.00  0.00    -0.071 C 
ATOM     84 1HG1 VAL C   6       2.028  23.494   5.034  1.00  0.00     0.028 H 
ATOM     85 2HG1 VAL C   6       0.760  22.313   5.575  1.00  0.00     0.028 H 
ATOM     86 3HG1 VAL C   6       0.375  24.140   5.661  1.00  0.00     0.028 H 
ATOM     87  CG2 VAL C   6       0.578  22.551   8.320  1.00  0.00    -0.071 C 
ATOM     88 1HG2 VAL C   6       0.203  23.121   9.305  1.00  0.00     0.028 H 
ATOM     89 2HG2 VAL C   6      -0.489  22.363   7.802  1.00  0.00     0.028 H 
ATOM     90 3HG2 VAL C   6       0.839  21.425   8.634  1.00  0.00     0.028 H 
ATOM     91  N   PHE C   7       4.859  23.787   6.237  1.00  0.00    -0.346 N 
ATOM     92  H   PHE C   7       5.197  22.648   6.234  1.00  0.00     0.163 HD
ATOM     93  CA  PHE C   7       5.616  24.696   5.387  1.00  0.00     0.093 C 
ATOM     94  HA  PHE C   7       5.808  25.657   6.067  1.00  0.00     0.088 H 
ATOM     95  C   PHE C   7       4.868  24.969   4.088  1.00  0.00     0.241 C 
ATOM     96  O   PHE C   7       4.517  24.036   3.358  1.00  0.00    -0.271 OA
ATOM     97  CB  PHE C   7       6.980  24.096   5.038  1.00  0.00    -0.014 C 
ATOM     98  HB2 PHE C   7       7.725  24.705   5.749  1.00  0.00     0.043 H 
ATOM     99  HB3 PHE C   7       7.197  22.977   5.400  1.00  0.00     0.043 H 
ATOM    100  CG  PHE C   7       7.790  23.882   3.771  1.00  0.00    -0.056 A 
ATOM    101  CD1 PHE C   7       7.354  23.026   2.748  1.00  0.00    -0.077 A 
ATOM    102  HD1 PHE C   7       6.488  22.216   2.802  1.00  0.00     0.084 H 
ATOM    103  CE1 PHE C   7       8.251  22.651   1.726  1.00  0.00    -0.082 A 
ATOM    104  HE1 PHE C   7       8.071  21.720   1.010  1.00  0.00     0.083 H 
ATOM    105  CZ  PHE C   7       9.503  23.275   1.636  1.00  0.00    -0.083 A 
ATOM    106  HZ  PHE C   7      10.276  22.968   0.787  1.00  0.00     0.083 H 
ATOM    107  CE2 PHE C   7       9.935  24.144   2.632  1.00  0.00    -0.082 A 
ATOM    108  HE2 PHE C   7      11.058  24.528   2.589  1.00  0.00     0.083 H 
ATOM    109  CD2 PHE C   7       9.032  24.526   3.657  1.00  0.00    -0.077 A 
ATOM    110  HD2 PHE C   7       9.479  25.463   4.233  1.00  0.00     0.084 H 
ATOM    111  N   TYR C   8       4.620  26.244   3.793  1.00  0.00    -0.346 N 
ATOM    112  H   TYR C   8       5.303  27.104   4.249  1.00  0.00     0.163 HD
ATOM    113  CA  TYR C   8       3.916  26.633   2.546  1.00  0.00     0.093 C 
ATOM    114  HA  TYR C   8       2.998  25.880   2.439  1.00  0.00     0.088 H 
ATOM    115  C   TYR C   8       4.909  26.665   1.367  1.00  0.00     0.241 C 
ATOM    116  O   TYR C   8       6.025  27.178   1.500  1.00  0.00    -0.271 OA
ATOM    117  CB  TYR C   8       3.288  28.020   2.694  1.00  0.00    -0.014 C 
ATOM    118  HB2 TYR C   8       2.428  28.190   1.878  1.00  0.00     0.043 H 
ATOM    119  HB3 TYR C   8       4.056  28.883   2.386  1.00  0.00     0.043 H 
ATOM    120  CG  TYR C   8       2.587  28.451   3.959  1.00  0.00    -0.056 A 
ATOM    121  CD1 TYR C   8       1.356  27.894   4.354  1.00  0.00    -0.074 A 
ATOM    122  HD1 TYR C   8       0.511  27.496   3.620  1.00  0.00     0.084 H 
ATOM    123  CE1 TYR C   8       0.838  28.189   5.617  1.00  0.00    -0.051 A 
ATOM    124  HE1 TYR C   8      -0.277  27.945   5.946  1.00  0.00     0.087 H 
ATOM    125  CZ  TYR C   8       1.547  29.064   6.484  1.00  0.00     0.065 A 
ATOM    126  OH  TYR C   8       1.122  29.268   7.754  1.00  0.00    -0.361 OA
ATOM    127  HH  TYR C   8       1.948  29.833   8.386  1.00  0.00     0.217 HD
ATOM    128  CE2 TYR C   8       2.706  29.725   6.020  1.00  0.00    -0.051 A 
ATOM    129  HE2 TYR C   8       3.276  30.599   6.589  1.00  0.00     0.087 H 
ATOM    130  CD2 TYR C   8       3.198  29.445   4.745  1.00  0.00    -0.074 A 
ATOM    131  HD2 TYR C   8       3.912  30.315   4.362  1.00  0.00     0.084 H 
ATOM    132  N   LYS C   9       4.546  26.132   0.205  1.00  0.00    -0.345 N 
ATOM    133  H   LYS C   9       3.465  25.654   0.088  1.00  0.00     0.163 HD
ATOM    134  CA  LYS C   9       5.446  26.214  -0.946  1.00  0.00     0.096 C 
ATOM    135  HA  LYS C   9       6.597  26.056  -0.685  1.00  0.00     0.089 H 
ATOM    136  C   LYS C   9       5.417  27.680  -1.532  1.00  0.00     0.196 C 
ATOM    137  O   LYS C   9       4.546  28.498  -1.140  1.00  0.00    -0.646 OA
ATOM    138  CB  LYS C   9       5.010  25.222  -2.159  1.00  0.00    -0.037 C 
ATOM    139  HB2 LYS C   9       5.186  25.906  -3.123  1.00  0.00     0.036 H 
ATOM    140  HB3 LYS C   9       3.822  25.114  -2.082  1.00  0.00     0.036 H 
ATOM    141  CG  LYS C   9       5.784  23.936  -2.416  1.00  0.00    -0.061 C 
ATOM    142  HG2 LYS C   9       6.945  24.130  -2.622  1.00  0.00     0.033 H 
ATOM    143  HG3 LYS C   9       5.737  23.207  -1.470  1.00  0.00     0.033 H 
ATOM    144  CD  LYS C   9       4.987  23.395  -3.605  1.00  0.00    -0.043 C 
ATOM    145  HD2 LYS C   9       4.655  24.124  -4.492  1.00  0.00     0.035 H 
ATOM    146  HD3 LYS C   9       3.946  23.000  -3.161  1.00  0.00     0.035 H 
ATOM    147  CE  LYS C   9       5.562  22.109  -4.157  1.00  0.00     0.080 C 
ATOM    148  HE2 LYS C   9       6.185  21.357  -3.466  1.00  0.00     0.075 H 
ATOM    149  HE3 LYS C   9       4.681  21.395  -4.544  1.00  0.00     0.075 H 
ATOM    150  NZ  LYS C   9       6.379  22.506  -5.316  1.00  0.00    -0.079 N 
ATOM    151  HZ1 LYS C   9       6.064  23.297  -6.160  1.00  0.00     0.274 HD
ATOM    152  HZ2 LYS C   9       7.513  22.805  -5.066  1.00  0.00     0.274 HD
ATOM    153  HZ3 LYS C   9       6.519  21.524  -5.994  1.00  0.00     0.274 HD
ATOM    154  OXT LYS C   9       6.240  28.071  -2.382  1.00  0.00    -0.646 OA
ENDROOT
TORSDOF 35
