REMARK  0 active torsions:
REMARK  status: ('A' for Active; 'I' for Inactive)
REMARK       I    between atoms: N_1  and  CA_5 
REMARK       I    between atoms: CA_5  and  C_7 
REMARK       I    between atoms: CA_5  and  CB_9 
REMARK       I    between atoms: C_7  and  N_14 
REMARK       I    between atoms: CB_9  and  OG_12 
REMARK       I    between atoms: N_14  and  CA_16 
REMARK       I    between atoms: CA_16  and  CB_20 
REMARK       I    between atoms: CA_16  and  C_18 
REMARK       I    between atoms: C_18  and  N_28 
REMARK       I    between atoms: CB_20  and  CG2_22 
REMARK       I    between atoms: CB_20  and  OG1_26 
REMARK       I    between atoms: N_28  and  CA_30 
REMARK       I    between atoms: CA_30  and  CB_34 
REMARK       I    between atoms: CA_30  and  C_32 
REMARK       I    between atoms: C_32  and  N_48 
REMARK       I    between atoms: CB_34  and  CG_37 
REMARK       I    between atoms: N_48  and  CA_50 
REMARK       I    between atoms: CA_50  and  CB_54 
REMARK       I    between atoms: CA_50  and  C_52 
REMARK       I    between atoms: C_52  and  N_60 
REMARK       I    between atoms: CB_54  and  CG_57 
REMARK       I    between atoms: N_60  and  CA_62 
REMARK       I    between atoms: CA_62  and  CB_66 
REMARK       I    between atoms: CA_62  and  C_64 
REMARK       I    between atoms: C_64  and  N_75 
REMARK       I    between atoms: CB_66  and  CG_69 
REMARK       I    between atoms: CG_69  and  CD_72 
REMARK       I    between atoms: N_75  and  CA_77 
REMARK       I    between atoms: CA_77  and  C_79 
REMARK       I    between atoms: CA_77  and  CB_81 
REMARK       I    between atoms: C_79  and  N_91 
REMARK       I    between atoms: CB_81  and  CG1_83 
REMARK       I    between atoms: CB_81  and  CG2_87 
REMARK       I    between atoms: N_91  and  CA_93 
REMARK       I    between atoms: CA_93  and  CB_97 
REMARK       I    between atoms: CA_93  and  C_95 
REMARK       I    between atoms: C_95  and  N_111 
REMARK       I    between atoms: CB_97  and  CG_100 
REMARK       I    between atoms: N_111  and  CA_113 
REMARK       I    between atoms: CA_113  and  C_115 
REMARK       I    between atoms: CA_113  and  CB_117 
REMARK       I    between atoms: C_115  and  N_132 
REMARK       I    between atoms: CB_117  and  CG_120 
REMARK       I    between atoms: CZ_125  and  OH_126 
REMARK       I    between atoms: N_132  and  CA_134 
REMARK       I    between atoms: CA_134  and  CB_138 
REMARK       I    between atoms: CA_134  and  C_136 
REMARK       I    between atoms: CB_138  and  CG_141 
REMARK       I    between atoms: CG_141  and  CD_144 
REMARK       I    between atoms: CD_144  and  CE_147 
REMARK       I    between atoms: CE_147  and  NZ_150 
ROOT
ATOM      1  N   SER C   1       3.569  10.245  15.174  1.00  0.00    -0.064 N 
ATOM      2  H   SER C   1       4.747  10.218  14.980  1.00  0.00     0.275 HD
ATOM      3  H2  SER C   1       3.362   9.226  15.776  1.00  0.00     0.275 HD
ATOM      4  H3  SER C   1       3.029   9.960  14.139  1.00  0.00     0.275 HD
ATOM      5  CA  SER C   1       3.063  11.615  15.582  1.00  0.00     0.195 C 
ATOM      6  HA  SER C   1       1.945  11.440  15.957  1.00  0.00     0.102 H 
ATOM      7  C   SER C   1       3.501  12.536  14.439  1.00  0.00     0.251 C 
ATOM      8  O   SER C   1       4.647  12.524  13.986  1.00  0.00    -0.271 OA
ATOM      9  CB  SER C   1       3.799  12.126  16.857  1.00  0.00     0.051 C 
ATOM     10  HB2 SER C   1       3.204  13.075  17.278  1.00  0.00     0.077 H 
ATOM     11  HB3 SER C   1       4.948  12.434  16.747  1.00  0.00     0.077 H 
ATOM     12  OG  SER C   1       3.738  11.223  17.944  1.00  0.00    -0.398 OA
ATOM     13  HG  SER C   1       4.396  11.620  18.844  1.00  0.00     0.209 HD
ATOM     14  N   THR C   2       2.314  13.175  13.971  1.00  0.00    -0.344 N 
ATOM     15  H   THR C   2       1.244  12.657  13.948  1.00  0.00     0.163 HD
ATOM     16  CA  THR C   2       2.428  14.371  13.118  1.00  0.00     0.113 C 
ATOM     17  HA  THR C   2       2.094  13.853  12.094  1.00  0.00     0.091 H 
ATOM     18  C   THR C   2       3.868  14.820  12.989  1.00  0.00     0.243 C 
ATOM     19  O   THR C   2       4.690  14.548  13.870  1.00  0.00    -0.271 OA
ATOM     20  CB  THR C   2       1.623  15.530  13.708  1.00  0.00     0.060 C 
ATOM     21  HB  THR C   2       1.026  15.710  12.682  1.00  0.00     0.086 H 
ATOM     22  CG2 THR C   2       2.186  16.948  13.816  1.00  0.00    -0.050 C 
ATOM     23 1HG2 THR C   2       1.680  17.804  13.147  1.00  0.00     0.031 H 
ATOM     24 2HG2 THR C   2       3.338  17.238  13.954  1.00  0.00     0.031 H 
ATOM     25 3HG2 THR C   2       1.909  17.264  14.944  1.00  0.00     0.031 H 
ATOM     26  OG1 THR C   2       0.362  15.264  14.294  1.00  0.00    -0.393 OA
ATOM     27  HG1 THR C   2      -0.176  16.266  14.614  1.00  0.00     0.210 HD
ATOM     28  N   PHE C   3       4.187  15.509  11.895  1.00  0.00    -0.346 N 
ATOM     29  H   PHE C   3       3.396  15.679  11.024  1.00  0.00     0.163 HD
ATOM     30  CA  PHE C   3       5.538  16.009  11.672  1.00  0.00     0.093 C 
ATOM     31  HA  PHE C   3       6.239  15.434  12.449  1.00  0.00     0.088 H 
ATOM     32  C   PHE C   3       5.604  17.511  11.918  1.00  0.00     0.241 C 
ATOM     33  O   PHE C   3       4.584  18.205  11.842  1.00  0.00    -0.271 OA
ATOM     34  CB  PHE C   3       5.981  15.739  10.233  1.00  0.00    -0.017 C 
ATOM     35  HB2 PHE C   3       5.202  15.137   9.532  1.00  0.00     0.043 H 
ATOM     36  HB3 PHE C   3       6.765  14.833  10.376  1.00  0.00     0.043 H 
ATOM     37  CG  PHE C   3       6.453  16.681   9.166  1.00  0.00    -0.072 A 
ATOM     38  CD1 PHE C   3       5.646  17.737   8.734  1.00  0.00    -0.017 A 
ATOM     39  HD1 PHE C   3       4.489  17.463   8.666  1.00  0.00     0.049 H 
ATOM     40  CE1 PHE C   3       6.008  18.428   7.569  1.00  0.00    -0.023 A 
ATOM     41  HE1 PHE C   3       5.169  18.394   6.722  1.00  0.00     0.048 H 
ATOM     42  CZ  PHE C   3       7.237  18.154   6.952  1.00  0.00    -0.098 A 
ATOM     43  HZ  PHE C   3       7.287  18.298   5.769  1.00  0.00     0.077 H 
ATOM     44  CE2 PHE C   3       8.064  17.126   7.425  1.00  0.00    -0.086 A 
ATOM     45  HE2 PHE C   3       8.439  16.357   6.595  1.00  0.00     0.083 H 
ATOM     46  CD2 PHE C   3       7.711  16.442   8.596  1.00  0.00    -0.080 A 
ATOM     47  HD2 PHE C   3       8.493  15.588   8.875  1.00  0.00     0.083 H 
ATOM     48  N   ASP C   4       6.799  18.020  12.214  1.00  0.00    -0.346 N 
ATOM     49  H   ASP C   4       7.744  17.332  11.979  1.00  0.00     0.163 HD
ATOM     50  CA  ASP C   4       6.986  19.446  12.451  1.00  0.00     0.093 C 
ATOM     51  HA  ASP C   4       6.051  20.155  12.667  1.00  0.00     0.087 H 
ATOM     52  C   ASP C   4       7.743  20.089  11.295  1.00  0.00     0.221 C 
ATOM     53  O   ASP C   4       8.503  21.042  11.495  1.00  0.00    -0.278 OA
ATOM     54  CB  ASP C   4       7.786  19.678  13.735  1.00  0.00     0.042 C 
ATOM     55  HB2 ASP C   4       7.051  19.623  14.679  1.00  0.00     0.052 H 
ATOM     56  HB3 ASP C   4       8.356  20.719  13.882  1.00  0.00     0.052 H 
ATOM     57  CG  ASP C   4       8.822  18.660  14.202  1.00  0.00     0.175 C 
ATOM     58  OD1 ASP C   4       9.032  17.683  13.434  1.00  0.00    -0.648 OA
ATOM     59  OD2 ASP C   4       9.450  18.928  15.264  1.00  0.00    -0.648 OA
ATOM     60  N   GLU C   5       7.540  19.574  10.083  1.00  0.00    -0.248 NA
ATOM     61  H   GLU C   5       6.365  19.392  10.113  1.00  0.00     0.131 HD
ATOM     62  CA  GLU C   5       8.194  20.120   8.900  1.00  0.00     0.071 C 
ATOM     63  HA  GLU C   5       8.939  21.033   9.104  1.00  0.00     0.078 H 
ATOM     64  C   GLU C   5       7.186  20.831   8.007  1.00  0.00     0.216 C 
ATOM     65  O   GLU C   5       7.503  21.195   6.870  1.00  0.00    -0.278 OA
ATOM     66  CB  GLU C   5       8.852  19.003   8.087  1.00  0.00    -0.033 C 
ATOM     67  HB2 GLU C   5       9.592  18.597   8.958  1.00  0.00     0.036 H 
ATOM     68  HB3 GLU C   5       8.054  18.383   8.714  1.00  0.00     0.036 H 
ATOM     69  CG  GLU C   5      10.291  19.265   7.598  1.00  0.00     0.018 C 
ATOM     70  HG2 GLU C   5      11.179  19.814   8.187  1.00  0.00     0.049 H 
ATOM     71  HG3 GLU C   5      10.196  19.949   6.621  1.00  0.00     0.049 H 
ATOM     72  CD  GLU C   5      11.029  18.049   6.996  1.00  0.00     0.172 C 
ATOM     73  OE1 GLU C   5      11.005  17.907   5.758  1.00  0.00    -0.648 OA
ATOM     74  OE2 GLU C   5      11.841  17.467   7.747  1.00  0.00    -0.648 OA
ATOM     75  N   VAL C   6       5.971  21.033   8.513  1.00  0.00    -0.248 NA
ATOM     76  H   VAL C   6       6.159  21.672   9.501  1.00  0.00     0.131 HD
ATOM     77  CA  VAL C   6       4.930  21.721   7.757  1.00  0.00     0.079 C 
ATOM     78  HA  VAL C   6       4.476  20.986   6.934  1.00  0.00     0.079 H 
ATOM     79  C   VAL C   6       5.424  23.077   7.270  1.00  0.00     0.236 C 
ATOM     80  O   VAL C   6       6.085  23.808   8.014  1.00  0.00    -0.272 OA
ATOM     81  CB  VAL C   6       3.693  21.946   8.628  1.00  0.00    -0.037 C 
ATOM     82  HB  VAL C   6       4.250  22.563   9.493  1.00  0.00     0.042 H 
ATOM     83  CG1 VAL C   6       2.813  23.173   8.380  1.00  0.00    -0.071 C 
ATOM     84 1HG1 VAL C   6       2.785  23.812   7.368  1.00  0.00     0.028 H 
ATOM     85 2HG1 VAL C   6       1.691  22.752   8.296  1.00  0.00     0.028 H 
ATOM     86 3HG1 VAL C   6       2.664  24.056   9.181  1.00  0.00     0.028 H 
ATOM     87  CG2 VAL C   6       3.241  20.953   9.700  1.00  0.00    -0.071 C 
ATOM     88 1HG2 VAL C   6       3.164  21.280  10.850  1.00  0.00     0.028 H 
ATOM     89 2HG2 VAL C   6       2.092  20.729   9.430  1.00  0.00     0.028 H 
ATOM     90 3HG2 VAL C   6       3.628  19.827   9.663  1.00  0.00     0.028 H 
ATOM     91  N   PHE C   7       5.107  23.414   6.021  1.00  0.00    -0.346 N 
ATOM     92  H   PHE C   7       4.548  22.647   5.304  1.00  0.00     0.163 HD
ATOM     93  CA  PHE C   7       5.506  24.694   5.448  1.00  0.00     0.093 C 
ATOM     94  HA  PHE C   7       5.150  25.516   6.238  1.00  0.00     0.088 H 
ATOM     95  C   PHE C   7       4.744  24.969   4.158  1.00  0.00     0.241 C 
ATOM     96  O   PHE C   7       4.272  24.038   3.498  1.00  0.00    -0.271 OA
ATOM     97  CB  PHE C   7       7.003  24.697   5.131  1.00  0.00    -0.014 C 
ATOM     98  HB2 PHE C   7       7.548  23.652   5.341  1.00  0.00     0.043 H 
ATOM     99  HB3 PHE C   7       7.475  25.479   5.907  1.00  0.00     0.043 H 
ATOM    100  CG  PHE C   7       7.714  24.977   3.815  1.00  0.00    -0.056 A 
ATOM    101  CD1 PHE C   7       7.473  24.217   2.659  1.00  0.00    -0.077 A 
ATOM    102  HD1 PHE C   7       6.967  23.142   2.613  1.00  0.00     0.084 H 
ATOM    103  CE1 PHE C   7       8.270  24.390   1.512  1.00  0.00    -0.082 A 
ATOM    104  HE1 PHE C   7       8.475  23.495   0.758  1.00  0.00     0.083 H 
ATOM    105  CZ  PHE C   7       9.246  25.397   1.482  1.00  0.00    -0.083 A 
ATOM    106  HZ  PHE C   7       9.998  25.511   0.570  1.00  0.00     0.083 H 
ATOM    107  CE2 PHE C   7       9.480  26.175   2.621  1.00  0.00    -0.082 A 
ATOM    108  HE2 PHE C   7      10.417  26.907   2.613  1.00  0.00     0.083 H 
ATOM    109  CD2 PHE C   7       8.670  26.008   3.759  1.00  0.00    -0.077 A 
ATOM    110  HD2 PHE C   7       8.982  26.834   4.555  1.00  0.00     0.084 H 
ATOM    111  N   TYR C   8       4.620  26.244   3.793  1.00  0.00    -0.346 N 
ATOM    112  H   TYR C   8       5.210  27.125   4.330  1.00  0.00     0.163 HD
ATOM    113  CA  TYR C   8       3.916  26.633   2.546  1.00  0.00     0.093 C 
ATOM    114  HA  TYR C   8       3.003  25.875   2.423  1.00  0.00     0.088 H 
ATOM    115  C   TYR C   8       4.909  26.665   1.367  1.00  0.00     0.241 C 
ATOM    116  O   TYR C   8       6.025  27.178   1.500  1.00  0.00    -0.271 OA
ATOM    117  CB  TYR C   8       3.288  28.020   2.694  1.00  0.00    -0.014 C 
ATOM    118  HB2 TYR C   8       2.422  28.120   1.865  1.00  0.00     0.043 H 
ATOM    119  HB3 TYR C   8       4.036  28.920   2.411  1.00  0.00     0.043 H 
ATOM    120  CG  TYR C   8       2.587  28.444   3.962  1.00  0.00    -0.056 A 
ATOM    121  CD1 TYR C   8       1.362  27.880   4.359  1.00  0.00    -0.074 A 
ATOM    122  HD1 TYR C   8       0.582  27.248   3.724  1.00  0.00     0.084 H 
ATOM    123  CE1 TYR C   8       0.844  28.171   5.626  1.00  0.00    -0.051 A 
ATOM    124  HE1 TYR C   8      -0.210  27.776   6.006  1.00  0.00     0.087 H 
ATOM    125  CZ  TYR C   8       1.551  29.050   6.489  1.00  0.00     0.065 A 
ATOM    126  OH  TYR C   8       1.126  29.257   7.757  1.00  0.00    -0.361 OA
ATOM    127  HH  TYR C   8       1.619  30.233   8.203  1.00  0.00     0.217 HD
ATOM    128  CE2 TYR C   8       2.707  29.716   6.025  1.00  0.00    -0.051 A 
ATOM    129  HE2 TYR C   8       3.384  30.461   6.656  1.00  0.00     0.087 H 
ATOM    130  CD2 TYR C   8       3.197  29.438   4.747  1.00  0.00    -0.074 A 
ATOM    131  HD2 TYR C   8       3.937  30.297   4.387  1.00  0.00     0.084 H 
ATOM    132  N   LYS C   9       4.546  26.132   0.205  1.00  0.00    -0.345 N 
ATOM    133  H   LYS C   9       3.493  25.589   0.105  1.00  0.00     0.163 HD
ATOM    134  CA  LYS C   9       5.446  26.214  -0.946  1.00  0.00     0.096 C 
ATOM    135  HA  LYS C   9       6.611  26.089  -0.740  1.00  0.00     0.089 H 
ATOM    136  C   LYS C   9       5.417  27.680  -1.532  1.00  0.00     0.196 C 
ATOM    137  O   LYS C   9       4.546  28.498  -1.140  1.00  0.00    -0.646 OA
ATOM    138  CB  LYS C   9       5.010  25.222  -2.159  1.00  0.00    -0.037 C 
ATOM    139  HB2 LYS C   9       3.818  25.127  -2.126  1.00  0.00     0.036 H 
ATOM    140  HB3 LYS C   9       5.204  25.886  -3.136  1.00  0.00     0.036 H 
ATOM    141  CG  LYS C   9       5.782  23.936  -2.415  1.00  0.00    -0.061 C 
ATOM    142  HG2 LYS C   9       5.691  23.207  -1.472  1.00  0.00     0.033 H 
ATOM    143  HG3 LYS C   9       6.948  24.110  -2.605  1.00  0.00     0.033 H 
ATOM    144  CD  LYS C   9       4.985  23.396  -3.606  1.00  0.00    -0.043 C 
ATOM    145  HD2 LYS C   9       3.927  23.036  -3.174  1.00  0.00     0.035 H 
ATOM    146  HD3 LYS C   9       4.648  24.152  -4.474  1.00  0.00     0.035 H 
ATOM    147  CE  LYS C   9       5.563  22.110  -4.157  1.00  0.00     0.080 C 
ATOM    148  HE2 LYS C   9       4.662  21.433  -4.575  1.00  0.00     0.075 H 
ATOM    149  HE3 LYS C   9       6.185  21.372  -3.442  1.00  0.00     0.075 H 
ATOM    150  NZ  LYS C   9       6.378  22.507  -5.314  1.00  0.00    -0.079 N 
ATOM    151  HZ1 LYS C   9       7.456  22.970  -5.070  1.00  0.00     0.274 HD
ATOM    152  HZ2 LYS C   9       6.675  21.498  -5.895  1.00  0.00     0.274 HD
ATOM    153  HZ3 LYS C   9       5.981  23.143  -6.250  1.00  0.00     0.274 HD
ATOM    154  OXT LYS C   9       6.240  28.085  -2.393  1.00  0.00    -0.646 OA
ENDROOT
TORSDOF 43
