REMARK  0 active torsions:
REMARK  status: ('A' for Active; 'I' for Inactive)
REMARK       I    between atoms: N_1  and  CA_5 
REMARK       I    between atoms: CA_5  and  C_7 
REMARK       I    between atoms: CA_5  and  CB_9 
REMARK       I    between atoms: C_7  and  N_14 
REMARK       I    between atoms: CB_9  and  OG_12 
REMARK       I    between atoms: N_14  and  CA_16 
REMARK       I    between atoms: CA_16  and  CB_20 
REMARK       I    between atoms: CA_16  and  C_18 
REMARK       I    between atoms: C_18  and  N_28 
REMARK       I    between atoms: CB_20  and  CG2_22 
REMARK       I    between atoms: CB_20  and  OG1_26 
REMARK       I    between atoms: N_28  and  CA_30 
REMARK       I    between atoms: CA_30  and  CB_34 
REMARK       I    between atoms: CA_30  and  C_32 
REMARK       I    between atoms: C_32  and  N_48 
REMARK       I    between atoms: CB_34  and  CG_37 
REMARK       I    between atoms: N_48  and  CA_50 
REMARK       I    between atoms: CA_50  and  C_52 
REMARK       I    between atoms: CA_50  and  CB_54 
REMARK       I    between atoms: C_52  and  N_60 
REMARK       I    between atoms: CB_54  and  CG_57 
REMARK       I    between atoms: N_60  and  CA_62 
REMARK       I    between atoms: CA_62  and  CB_66 
REMARK       I    between atoms: CA_62  and  C_64 
REMARK       I    between atoms: C_64  and  N_75 
REMARK       I    between atoms: CB_66  and  CG_69 
REMARK       I    between atoms: CG_69  and  CD_72 
REMARK       I    between atoms: N_75  and  CA_77 
REMARK       I    between atoms: CA_77  and  C_79 
REMARK       I    between atoms: CA_77  and  CB_81 
REMARK       I    between atoms: C_79  and  N_91 
REMARK       I    between atoms: CB_81  and  CG1_83 
REMARK       I    between atoms: CB_81  and  CG2_87 
REMARK       I    between atoms: N_91  and  CA_93 
REMARK       I    between atoms: CA_93  and  CB_97 
REMARK       I    between atoms: CA_93  and  C_95 
REMARK       I    between atoms: C_95  and  N_111 
REMARK       I    between atoms: CB_97  and  CG_100 
REMARK       I    between atoms: N_111  and  CA_113 
REMARK       I    between atoms: CA_113  and  C_115 
REMARK       I    between atoms: CA_113  and  CB_117 
REMARK       I    between atoms: C_115  and  N_132 
REMARK       I    between atoms: CB_117  and  CG_120 
REMARK       I    between atoms: CZ_125  and  OH_126 
REMARK       I    between atoms: N_132  and  CA_134 
REMARK       I    between atoms: CA_134  and  CB_138 
REMARK       I    between atoms: CA_134  and  C_136 
REMARK       I    between atoms: CB_138  and  CG_141 
REMARK       I    between atoms: CG_141  and  CD_144 
REMARK       I    between atoms: CD_144  and  CE_147 
REMARK       I    between atoms: CE_147  and  NZ_150 
ROOT
ATOM      1  N   SER C   1       3.569  10.245  15.174  1.00  0.00    -0.064 N 
ATOM      2  H   SER C   1       4.735   9.988  15.265  1.00  0.00     0.275 HD
ATOM      3  H2  SER C   1       3.283   9.948  14.048  1.00  0.00     0.275 HD
ATOM      4  H3  SER C   1       3.033   9.369  15.794  1.00  0.00     0.275 HD
ATOM      5  CA  SER C   1       3.063  11.615  15.582  1.00  0.00     0.195 C 
ATOM      6  HA  SER C   1       1.912  11.440  15.843  1.00  0.00     0.102 H 
ATOM      7  C   SER C   1       3.501  12.536  14.439  1.00  0.00     0.251 C 
ATOM      8  O   SER C   1       4.647  12.524  13.986  1.00  0.00    -0.271 OA
ATOM      9  CB  SER C   1       3.799  12.126  16.857  1.00  0.00     0.051 C 
ATOM     10  HB2 SER C   1       3.889  11.263  17.680  1.00  0.00     0.077 H 
ATOM     11  HB3 SER C   1       3.154  12.971  17.406  1.00  0.00     0.077 H 
ATOM     12  OG  SER C   1       5.128  12.608  16.682  1.00  0.00    -0.398 OA
ATOM     13  HG  SER C   1       5.526  13.100  17.683  1.00  0.00     0.209 HD
ATOM     14  N   THR C   2       2.645  13.462  14.123  1.00  0.00    -0.344 N 
ATOM     15  H   THR C   2       1.723  13.546  14.868  1.00  0.00     0.163 HD
ATOM     16  CA  THR C   2       2.846  14.378  12.987  1.00  0.00     0.113 C 
ATOM     17  HA  THR C   2       3.208  13.673  12.095  1.00  0.00     0.091 H 
ATOM     18  C   THR C   2       3.766  15.521  13.358  1.00  0.00     0.243 C 
ATOM     19  O   THR C   2       3.873  15.884  14.534  1.00  0.00    -0.271 OA
ATOM     20  CB  THR C   2       1.511  14.974  12.535  1.00  0.00     0.060 C 
ATOM     21  HB  THR C   2       1.463  15.395  11.420  1.00  0.00     0.086 H 
ATOM     22  CG2 THR C   2       0.956  15.841  13.689  1.00  0.00    -0.050 C 
ATOM     23 1HG2 THR C   2      -0.205  16.120  13.551  1.00  0.00     0.031 H 
ATOM     24 2HG2 THR C   2       1.431  16.928  13.522  1.00  0.00     0.031 H 
ATOM     25 3HG2 THR C   2       0.937  15.699  14.878  1.00  0.00     0.031 H 
ATOM     26  OG1 THR C   2       0.565  13.925  12.641  1.00  0.00    -0.393 OA
ATOM     27  HG1 THR C   2      -0.434  14.201  12.059  1.00  0.00     0.210 HD
ATOM     28  N   PHE C   3       4.439  16.099  12.364  1.00  0.00    -0.346 N 
ATOM     29  H   PHE C   3       4.316  15.746  11.236  1.00  0.00     0.163 HD
ATOM     30  CA  PHE C   3       5.339  17.221  12.598  1.00  0.00     0.093 C 
ATOM     31  HA  PHE C   3       5.612  17.208  13.760  1.00  0.00     0.088 H 
ATOM     32  C   PHE C   3       4.656  18.540  12.259  1.00  0.00     0.241 C 
ATOM     33  O   PHE C   3       3.618  18.555  11.589  1.00  0.00    -0.271 OA
ATOM     34  CB  PHE C   3       6.594  17.093  11.732  1.00  0.00    -0.014 C 
ATOM     35  HB2 PHE C   3       7.377  17.828  12.256  1.00  0.00     0.043 H 
ATOM     36  HB3 PHE C   3       6.877  16.018  12.187  1.00  0.00     0.043 H 
ATOM     37  CG  PHE C   3       7.218  16.660  10.438  1.00  0.00    -0.056 A 
ATOM     38  CD1 PHE C   3       6.690  16.626   9.155  1.00  0.00    -0.080 A 
ATOM     39  HD1 PHE C   3       6.125  15.726   8.624  1.00  0.00     0.083 H 
ATOM     40  CE1 PHE C   3       7.254  17.764   8.561  1.00  0.00    -0.094 A 
ATOM     41  HE1 PHE C   3       7.271  17.604   7.381  1.00  0.00     0.077 H 
ATOM     42  CZ  PHE C   3       8.301  18.389   9.277  1.00  0.00    -0.012 A 
ATOM     43  HZ  PHE C   3       8.466  19.100  10.226  1.00  0.00     0.053 H 
ATOM     44  CE2 PHE C   3       9.151  17.686  10.152  1.00  0.00    -0.094 A 
ATOM     45  HE2 PHE C   3      10.336  17.707  10.267  1.00  0.00     0.077 H 
ATOM     46  CD2 PHE C   3       8.593  16.475  10.564  1.00  0.00    -0.080 A 
ATOM     47  HD2 PHE C   3       9.190  15.455  10.693  1.00  0.00     0.083 H 
ATOM     48  N   ASP C   4       5.232  19.650  12.717  1.00  0.00    -0.346 N 
ATOM     49  H   ASP C   4       6.088  19.518  13.527  1.00  0.00     0.163 HD
ATOM     50  CA  ASP C   4       4.680  20.970  12.438  1.00  0.00     0.093 C 
ATOM     51  HA  ASP C   4       3.511  20.950  12.199  1.00  0.00     0.087 H 
ATOM     52  C   ASP C   4       5.325  21.574  11.198  1.00  0.00     0.221 C 
ATOM     53  O   ASP C   4       5.003  22.701  10.808  1.00  0.00    -0.278 OA
ATOM     54  CB  ASP C   4       4.926  21.916  13.616  1.00  0.00     0.042 C 
ATOM     55  HB2 ASP C   4       5.377  22.973  13.285  1.00  0.00     0.052 H 
ATOM     56  HB3 ASP C   4       3.857  22.125  14.111  1.00  0.00     0.052 H 
ATOM     57  CG  ASP C   4       5.695  21.791  14.933  1.00  0.00     0.175 C 
ATOM     58  OD1 ASP C   4       6.319  20.743  15.211  1.00  0.00    -0.648 OA
ATOM     59  OD2 ASP C   4       5.713  22.849  15.584  1.00  0.00    -0.648 OA
ATOM     60  N   GLU C   5       6.238  20.831  10.573  1.00  0.00    -0.248 NA
ATOM     61  H   GLU C   5       7.091  20.738  11.401  1.00  0.00     0.131 HD
ATOM     62  CA  GLU C   5       6.908  21.297   9.365  1.00  0.00     0.076 C 
ATOM     63  HA  GLU C   5       7.253  22.396   9.677  1.00  0.00     0.079 H 
ATOM     64  C   GLU C   5       5.947  21.301   8.183  1.00  0.00     0.236 C 
ATOM     65  O   GLU C   5       5.472  20.243   7.757  1.00  0.00    -0.272 OA
ATOM     66  CB  GLU C   5       8.089  20.388   9.020  1.00  0.00    -0.033 C 
ATOM     67  HB2 GLU C   5       7.124  19.678   9.021  1.00  0.00     0.036 H 
ATOM     68  HB3 GLU C   5       8.274  20.053   7.876  1.00  0.00     0.036 H 
ATOM     69  CG  GLU C   5       9.199  21.371   8.512  1.00  0.00     0.018 C 
ATOM     70  HG2 GLU C   5       9.078  22.136   7.602  1.00  0.00     0.049 H 
ATOM     71  HG3 GLU C   5       9.587  21.972   9.471  1.00  0.00     0.049 H 
ATOM     72  CD  GLU C   5      10.614  20.882   8.141  1.00  0.00     0.172 C 
ATOM     73  OE1 GLU C   5      10.838  19.711   7.782  1.00  0.00    -0.648 OA
ATOM     74  OE2 GLU C   5      11.519  21.713   8.005  1.00  0.00    -0.648 OA
ATOM     75  N   VAL C   6       5.656  22.485   7.647  1.00  0.00    -0.346 N 
ATOM     76  H   VAL C   6       6.310  23.459   7.842  1.00  0.00     0.163 HD
ATOM     77  CA  VAL C   6       4.764  22.610   6.500  1.00  0.00     0.092 C 
ATOM     78  HA  VAL C   6       4.696  21.535   5.990  1.00  0.00     0.088 H 
ATOM     79  C   VAL C   6       5.321  23.604   5.489  1.00  0.00     0.241 C 
ATOM     80  O   VAL C   6       5.611  24.754   5.835  1.00  0.00    -0.271 OA
ATOM     81  CB  VAL C   6       3.384  23.099   6.943  1.00  0.00    -0.033 C 
ATOM     82  HB  VAL C   6       3.037  22.070   7.450  1.00  0.00     0.042 H 
ATOM     83  CG1 VAL C   6       2.221  23.020   5.940  1.00  0.00    -0.071 C 
ATOM     84 1HG1 VAL C   6       2.095  24.046   5.336  1.00  0.00     0.028 H 
ATOM     85 2HG1 VAL C   6       2.189  22.156   5.110  1.00  0.00     0.028 H 
ATOM     86 3HG1 VAL C   6       1.121  22.871   6.399  1.00  0.00     0.028 H 
ATOM     87  CG2 VAL C   6       3.097  23.917   8.212  1.00  0.00    -0.071 C 
ATOM     88 1HG2 VAL C   6       3.981  24.581   8.669  1.00  0.00     0.028 H 
ATOM     89 2HG2 VAL C   6       2.584  23.386   9.156  1.00  0.00     0.028 H 
ATOM     90 3HG2 VAL C   6       2.291  24.773   7.988  1.00  0.00     0.028 H 
ATOM     91  N   PHE C   7       5.471  23.165   4.241  1.00  0.00    -0.346 N 
ATOM     92  H   PHE C   7       5.202  22.047   3.942  1.00  0.00     0.163 HD
ATOM     93  CA  PHE C   7       5.976  24.029   3.181  1.00  0.00     0.093 C 
ATOM     94  HA  PHE C   7       6.953  24.522   3.658  1.00  0.00     0.088 H 
ATOM     95  C   PHE C   7       4.877  24.947   2.663  1.00  0.00     0.241 C 
ATOM     96  O   PHE C   7       3.928  24.489   2.019  1.00  0.00    -0.271 OA
ATOM     97  CB  PHE C   7       6.495  23.194   2.008  1.00  0.00    -0.017 C 
ATOM     98  HB2 PHE C   7       7.693  23.203   2.060  1.00  0.00     0.043 H 
ATOM     99  HB3 PHE C   7       6.372  22.003   2.047  1.00  0.00     0.043 H 
ATOM    100  CG  PHE C   7       6.005  23.515   0.672  1.00  0.00    -0.073 A 
ATOM    101  CD1 PHE C   7       5.006  22.719   0.108  1.00  0.00    -0.083 A 
ATOM    102  HD1 PHE C   7       4.085  22.137   0.586  1.00  0.00     0.083 H 
ATOM    103  CE1 PHE C   7       5.249  22.481  -1.240  1.00  0.00    -0.098 A 
ATOM    104  HE1 PHE C   7       4.667  21.485  -1.538  1.00  0.00     0.077 H 
ATOM    105  CZ  PHE C   7       6.450  22.984  -1.763  1.00  0.00    -0.026 A 
ATOM    106  HZ  PHE C   7       7.201  22.062  -1.869  1.00  0.00     0.047 H 
ATOM    107  CE2 PHE C   7       7.073  24.134  -1.232  1.00  0.00    -0.034 A 
ATOM    108  HE2 PHE C   7       8.266  24.182  -1.287  1.00  0.00     0.042 H 
ATOM    109  CD2 PHE C   7       6.649  24.558   0.023  1.00  0.00    -0.020 A 
ATOM    110  HD2 PHE C   7       7.509  25.125   0.625  1.00  0.00     0.048 H 
ATOM    111  N   TYR C   8       4.996  26.245   2.942  1.00  0.00    -0.346 N 
ATOM    112  H   TYR C   8       6.109  26.658   2.986  1.00  0.00     0.163 HD
ATOM    113  CA  TYR C   8       3.998  27.237   2.474  1.00  0.00     0.088 C 
ATOM    114  HA  TYR C   8       2.850  26.928   2.564  1.00  0.00     0.087 H 
ATOM    115  C   TYR C   8       4.201  27.523   0.972  1.00  0.00     0.221 C 
ATOM    116  O   TYR C   8       5.335  27.690   0.513  1.00  0.00    -0.278 OA
ATOM    117  CB  TYR C   8       4.143  28.551   3.245  1.00  0.00    -0.014 C 
ATOM    118  HB2 TYR C   8       4.801  29.371   2.673  1.00  0.00     0.043 H 
ATOM    119  HB3 TYR C   8       3.131  29.187   3.329  1.00  0.00     0.043 H 
ATOM    120  CG  TYR C   8       4.566  28.316   4.658  1.00  0.00    -0.056 A 
ATOM    121  CD1 TYR C   8       3.621  28.027   5.649  1.00  0.00    -0.074 A 
ATOM    122  HD1 TYR C   8       2.440  27.905   5.614  1.00  0.00     0.084 H 
ATOM    123  CE1 TYR C   8       4.091  28.327   6.939  1.00  0.00    -0.051 A 
ATOM    124  HE1 TYR C   8       3.484  28.100   7.934  1.00  0.00     0.087 H 
ATOM    125  CZ  TYR C   8       5.215  29.145   7.083  1.00  0.00     0.065 A 
ATOM    126  OH  TYR C   8       5.179  30.124   8.063  1.00  0.00    -0.361 OA
ATOM    127  HH  TYR C   8       6.166  30.083   8.717  1.00  0.00     0.217 HD
ATOM    128  CE2 TYR C   8       6.292  28.895   6.184  1.00  0.00    -0.051 A 
ATOM    129  HE2 TYR C   8       7.410  29.035   6.559  1.00  0.00     0.087 H 
ATOM    130  CD2 TYR C   8       5.948  28.426   4.906  1.00  0.00    -0.074 A 
ATOM    131  HD2 TYR C   8       6.898  28.680   4.238  1.00  0.00     0.084 H 
ATOM    132  N   LYS C   9       4.546  26.132   0.205  1.00  0.00    -0.246 NA
ATOM    133  H   LYS C   9       3.396  25.881   0.014  1.00  0.00     0.131 HD
ATOM    134  CA  LYS C   9       5.446  26.214  -0.946  1.00  0.00     0.083 C 
ATOM    135  HA  LYS C   9       6.603  26.491  -0.847  1.00  0.00     0.081 H 
ATOM    136  C   LYS C   9       5.417  27.680  -1.532  1.00  0.00     0.191 C 
ATOM    137  O   LYS C   9       4.546  28.498  -1.140  1.00  0.00    -0.647 OA
ATOM    138  CB  LYS C   9       5.010  25.222  -2.159  1.00  0.00    -0.041 C 
ATOM    139  HB2 LYS C   9       4.344  25.944  -2.853  1.00  0.00     0.036 H 
ATOM    140  HB3 LYS C   9       4.077  24.569  -1.785  1.00  0.00     0.036 H 
ATOM    141  CG  LYS C   9       6.094  24.525  -3.001  1.00  0.00    -0.062 C 
ATOM    142  HG2 LYS C   9       7.257  24.333  -3.235  1.00  0.00     0.033 H 
ATOM    143  HG3 LYS C   9       6.215  25.513  -3.682  1.00  0.00     0.033 H 
ATOM    144  CD  LYS C   9       5.381  23.577  -3.972  1.00  0.00    -0.043 C 
ATOM    145  HD2 LYS C   9       4.404  22.983  -3.618  1.00  0.00     0.035 H 
ATOM    146  HD3 LYS C   9       4.837  24.205  -4.842  1.00  0.00     0.035 H 
ATOM    147  CE  LYS C   9       6.308  22.718  -4.823  1.00  0.00     0.080 C 
ATOM    148  HE2 LYS C   9       6.370  23.114  -5.954  1.00  0.00     0.075 H 
ATOM    149  HE3 LYS C   9       7.485  22.576  -4.645  1.00  0.00     0.075 H 
ATOM    150  NZ  LYS C   9       5.807  21.334  -4.875  1.00  0.00    -0.079 N 
ATOM    151  HZ1 LYS C   9       4.771  21.232  -5.471  1.00  0.00     0.274 HD
ATOM    152  HZ2 LYS C   9       5.708  20.563  -3.965  1.00  0.00     0.274 HD
ATOM    153  HZ3 LYS C   9       6.541  20.695  -5.579  1.00  0.00     0.274 HD
ATOM    154  OXT LYS C   9       6.207  27.897  -2.485  1.00  0.00    -0.647 OA
ENDROOT
TORSDOF 43
