REMARK  0 active torsions:
REMARK  status: ('A' for Active; 'I' for Inactive)
REMARK       I    between atoms: N_1  and  CA_5 
REMARK       I    between atoms: CA_5  and  C_7 
REMARK       I    between atoms: CA_5  and  CB_9 
REMARK       I    between atoms: C_7  and  N_14 
REMARK       I    between atoms: CB_9  and  OG_12 
REMARK       I    between atoms: N_14  and  CA_16 
REMARK       I    between atoms: CA_16  and  CB_20 
REMARK       I    between atoms: CA_16  and  C_18 
REMARK       I    between atoms: C_18  and  N_28 
REMARK       I    between atoms: CB_20  and  OG1_26 
REMARK       I    between atoms: CB_20  and  CG2_22 
REMARK       I    between atoms: N_28  and  CA_30 
REMARK       I    between atoms: CA_30  and  CB_34 
REMARK       I    between atoms: CA_30  and  C_32 
REMARK       I    between atoms: C_32  and  N_48 
REMARK       I    between atoms: CB_34  and  CG_37 
REMARK       I    between atoms: N_48  and  CA_50 
REMARK       I    between atoms: CA_50  and  CB_54 
REMARK       I    between atoms: CA_50  and  C_52 
REMARK       I    between atoms: C_52  and  N_60 
REMARK       I    between atoms: CB_54  and  CG_57 
REMARK       I    between atoms: N_60  and  CA_62 
REMARK       I    between atoms: CA_62  and  CB_66 
REMARK       I    between atoms: CA_62  and  C_64 
REMARK       I    between atoms: C_64  and  N_75 
REMARK       I    between atoms: CB_66  and  CG_69 
REMARK       I    between atoms: CG_69  and  CD_72 
REMARK       I    between atoms: N_75  and  CA_77 
REMARK       I    between atoms: CA_77  and  CB_81 
REMARK       I    between atoms: CA_77  and  C_79 
REMARK       I    between atoms: C_79  and  N_91 
REMARK       I    between atoms: CB_81  and  CG1_83 
REMARK       I    between atoms: CB_81  and  CG2_87 
REMARK       I    between atoms: N_91  and  CA_93 
REMARK       I    between atoms: CA_93  and  CB_97 
REMARK       I    between atoms: CA_93  and  C_95 
REMARK       I    between atoms: C_95  and  N_111 
REMARK       I    between atoms: CB_97  and  CG_100 
REMARK       I    between atoms: N_111  and  CA_113 
REMARK       I    between atoms: CA_113  and  CB_117 
REMARK       I    between atoms: CA_113  and  C_115 
REMARK       I    between atoms: N_132  and  C_115 
REMARK       I    between atoms: CB_117  and  CG_120 
REMARK       I    between atoms: CZ_125  and  OH_126 
REMARK       I    between atoms: N_132  and  CA_134 
REMARK       I    between atoms: CA_134  and  CB_138 
REMARK       I    between atoms: CA_134  and  C_136 
REMARK       I    between atoms: CB_138  and  CG_141 
REMARK       I    between atoms: CG_141  and  CD_144 
REMARK       I    between atoms: CD_144  and  CE_147 
REMARK       I    between atoms: CE_147  and  NZ_150 
ROOT
ATOM      1  N   SER C   1       3.569  10.245  15.174  1.00  0.00    -0.064 N 
ATOM      2  H   SER C   1       2.614   9.543  14.985  1.00  0.00     0.275 HD
ATOM      3  H2  SER C   1       4.195  10.088  14.164  1.00  0.00     0.275 HD
ATOM      4  H3  SER C   1       4.221   9.612  15.956  1.00  0.00     0.275 HD
ATOM      5  CA  SER C   1       3.063  11.615  15.582  1.00  0.00     0.195 C 
ATOM      6  HA  SER C   1       1.902  11.528  15.842  1.00  0.00     0.102 H 
ATOM      7  C   SER C   1       3.501  12.536  14.439  1.00  0.00     0.251 C 
ATOM      8  O   SER C   1       4.647  12.524  13.986  1.00  0.00    -0.271 OA
ATOM      9  CB  SER C   1       3.799  12.126  16.857  1.00  0.00     0.051 C 
ATOM     10  HB2 SER C   1       3.262  13.097  17.303  1.00  0.00     0.077 H 
ATOM     11  HB3 SER C   1       4.962  12.361  16.711  1.00  0.00     0.077 H 
ATOM     12  OG  SER C   1       3.742  11.224  17.948  1.00  0.00    -0.398 OA
ATOM     13  HG  SER C   1       4.266  11.692  18.903  1.00  0.00     0.209 HD
ATOM     14  N   THR C   2       2.645  13.462  14.123  1.00  0.00    -0.344 N 
ATOM     15  H   THR C   2       1.840  13.846  14.909  1.00  0.00     0.163 HD
ATOM     16  CA  THR C   2       2.846  14.378  12.987  1.00  0.00     0.113 C 
ATOM     17  HA  THR C   2       3.289  13.621  12.177  1.00  0.00     0.091 H 
ATOM     18  C   THR C   2       3.766  15.521  13.358  1.00  0.00     0.243 C 
ATOM     19  O   THR C   2       3.873  15.884  14.534  1.00  0.00    -0.271 OA
ATOM     20  CB  THR C   2       1.511  14.974  12.535  1.00  0.00     0.060 C 
ATOM     21  HB  THR C   2       1.590  14.667  11.377  1.00  0.00     0.086 H 
ATOM     22  CG2 THR C   2       1.340  16.468  12.232  1.00  0.00    -0.050 C 
ATOM     23 1HG2 THR C   2       1.835  16.997  11.280  1.00  0.00     0.031 H 
ATOM     24 2HG2 THR C   2       0.189  16.642  11.930  1.00  0.00     0.031 H 
ATOM     25 3HG2 THR C   2       1.394  17.108  13.242  1.00  0.00     0.031 H 
ATOM     26  OG1 THR C   2       0.351  14.150  12.516  1.00  0.00    -0.393 OA
ATOM     27  HG1 THR C   2      -0.358  14.412  13.430  1.00  0.00     0.210 HD
ATOM     28  N   PHE C   3       4.439  16.099  12.364  1.00  0.00    -0.346 N 
ATOM     29  H   PHE C   3       4.392  15.586  11.292  1.00  0.00     0.163 HD
ATOM     30  CA  PHE C   3       5.339  17.221  12.598  1.00  0.00     0.093 C 
ATOM     31  HA  PHE C   3       5.898  17.078  13.643  1.00  0.00     0.088 H 
ATOM     32  C   PHE C   3       4.587  18.543  12.511  1.00  0.00     0.241 C 
ATOM     33  O   PHE C   3       4.210  18.979  11.418  1.00  0.00    -0.271 OA
ATOM     34  CB  PHE C   3       6.460  17.237  11.558  1.00  0.00    -0.014 C 
ATOM     35  HB2 PHE C   3       7.334  16.683  12.162  1.00  0.00     0.043 H 
ATOM     36  HB3 PHE C   3       6.331  16.447  10.666  1.00  0.00     0.043 H 
ATOM     37  CG  PHE C   3       7.227  18.182  10.669  1.00  0.00    -0.056 A 
ATOM     38  CD1 PHE C   3       6.590  18.774   9.571  1.00  0.00    -0.077 A 
ATOM     39  HD1 PHE C   3       5.629  18.302   9.053  1.00  0.00     0.084 H 
ATOM     40  CE1 PHE C   3       7.382  19.399   8.586  1.00  0.00    -0.082 A 
ATOM     41  HE1 PHE C   3       7.195  19.150   7.437  1.00  0.00     0.083 H 
ATOM     42  CZ  PHE C   3       8.738  19.653   8.841  1.00  0.00    -0.083 A 
ATOM     43  HZ  PHE C   3       9.437  20.100   7.989  1.00  0.00     0.083 H 
ATOM     44  CE2 PHE C   3       9.370  19.062   9.940  1.00  0.00    -0.082 A 
ATOM     45  HE2 PHE C   3      10.532  18.829   9.840  1.00  0.00     0.083 H 
ATOM     46  CD2 PHE C   3       8.602  18.408  10.916  1.00  0.00    -0.077 A 
ATOM     47  HD2 PHE C   3       9.304  18.033  11.799  1.00  0.00     0.084 H 
ATOM     48  N   ASP C   4       4.365  19.185  13.657  1.00  0.00    -0.345 N 
ATOM     49  H   ASP C   4       4.200  18.559  14.655  1.00  0.00     0.163 HD
ATOM     50  CA  ASP C   4       3.672  20.467  13.694  1.00  0.00     0.098 C 
ATOM     51  HA  ASP C   4       2.542  20.411  13.316  1.00  0.00     0.088 H 
ATOM     52  C   ASP C   4       4.403  21.500  12.844  1.00  0.00     0.241 C 
ATOM     53  O   ASP C   4       3.894  22.603  12.621  1.00  0.00    -0.271 OA
ATOM     54  CB  ASP C   4       3.594  20.995  15.128  1.00  0.00     0.043 C 
ATOM     55  HB2 ASP C   4       3.402  22.171  15.230  1.00  0.00     0.052 H 
ATOM     56  HB3 ASP C   4       2.665  20.518  15.713  1.00  0.00     0.052 H 
ATOM     57  CG  ASP C   4       4.710  20.775  16.134  1.00  0.00     0.175 C 
ATOM     58  OD1 ASP C   4       5.782  20.428  15.580  1.00  0.00    -0.648 OA
ATOM     59  OD2 ASP C   4       4.577  21.216  17.301  1.00  0.00    -0.648 OA
ATOM     60  N   GLU C   5       5.597  21.150  12.368  1.00  0.00    -0.346 N 
ATOM     61  H   GLU C   5       6.283  20.529  13.111  1.00  0.00     0.163 HD
ATOM     62  CA  GLU C   5       6.379  22.048  11.527  1.00  0.00     0.090 C 
ATOM     63  HA  GLU C   5       6.240  23.146  11.971  1.00  0.00     0.087 H 
ATOM     64  C   GLU C   5       5.964  21.918  10.067  1.00  0.00     0.241 C 
ATOM     65  O   GLU C   5       6.624  21.226   9.286  1.00  0.00    -0.271 OA
ATOM     66  CB  GLU C   5       7.870  21.720  11.633  1.00  0.00    -0.029 C 
ATOM     67  HB2 GLU C   5       8.490  21.052  10.872  1.00  0.00     0.037 H 
ATOM     68  HB3 GLU C   5       8.232  21.390  12.725  1.00  0.00     0.037 H 
ATOM     69  CG  GLU C   5       8.769  22.961  11.515  1.00  0.00     0.018 C 
ATOM     70  HG2 GLU C   5       8.480  23.912  12.182  1.00  0.00     0.049 H 
ATOM     71  HG3 GLU C   5       8.896  23.426  10.420  1.00  0.00     0.049 H 
ATOM     72  CD  GLU C   5      10.228  22.809  11.968  1.00  0.00     0.172 C 
ATOM     73  OE1 GLU C   5      11.072  22.553  11.093  1.00  0.00    -0.648 OA
ATOM     74  OE2 GLU C   5      10.507  23.306  13.072  1.00  0.00    -0.648 OA
ATOM     75  N   VAL C   6       4.871  22.581   9.692  1.00  0.00    -0.346 N 
ATOM     76  H   VAL C   6       4.680  23.625  10.230  1.00  0.00     0.163 HD
ATOM     77  CA  VAL C   6       4.389  22.548   8.315  1.00  0.00     0.092 C 
ATOM     78  HA  VAL C   6       4.692  21.536   7.763  1.00  0.00     0.088 H 
ATOM     79  C   VAL C   6       4.777  23.822   7.577  1.00  0.00     0.241 C 
ATOM     80  O   VAL C   6       4.471  24.929   8.032  1.00  0.00    -0.271 OA
ATOM     81  CB  VAL C   6       2.865  22.420   8.282  1.00  0.00    -0.033 C 
ATOM     82  HB  VAL C   6       2.560  23.403   8.893  1.00  0.00     0.042 H 
ATOM     83  CG1 VAL C   6       2.086  22.897   7.052  1.00  0.00    -0.071 C 
ATOM     84 1HG1 VAL C   6       2.304  22.091   6.190  1.00  0.00     0.028 H 
ATOM     85 2HG1 VAL C   6       0.898  22.772   7.150  1.00  0.00     0.028 H 
ATOM     86 3HG1 VAL C   6       2.329  23.958   6.566  1.00  0.00     0.028 H 
ATOM     87  CG2 VAL C   6       2.110  21.554   9.292  1.00  0.00    -0.071 C 
ATOM     88 1HG2 VAL C   6       0.913  21.476   9.226  1.00  0.00     0.028 H 
ATOM     89 2HG2 VAL C   6       2.406  20.418   9.051  1.00  0.00     0.028 H 
ATOM     90 3HG2 VAL C   6       2.218  21.747  10.467  1.00  0.00     0.028 H 
ATOM     91  N   PHE C   7       5.451  23.670   6.438  1.00  0.00    -0.346 N 
ATOM     92  H   PHE C   7       5.647  22.611   5.935  1.00  0.00     0.163 HD
ATOM     93  CA  PHE C   7       5.861  24.814   5.633  1.00  0.00     0.093 C 
ATOM     94  HA  PHE C   7       5.808  25.804   6.296  1.00  0.00     0.088 H 
ATOM     95  C   PHE C   7       5.002  24.926   4.379  1.00  0.00     0.241 C 
ATOM     96  O   PHE C   7       4.694  23.917   3.738  1.00  0.00    -0.271 OA
ATOM     97  CB  PHE C   7       7.323  24.671   5.201  1.00  0.00    -0.014 C 
ATOM     98  HB2 PHE C   7       7.897  25.470   5.884  1.00  0.00     0.043 H 
ATOM     99  HB3 PHE C   7       7.855  23.658   5.553  1.00  0.00     0.043 H 
ATOM    100  CG  PHE C   7       8.015  24.735   3.850  1.00  0.00    -0.056 A 
ATOM    101  CD1 PHE C   7       7.726  23.824   2.825  1.00  0.00    -0.077 A 
ATOM    102  HD1 PHE C   7       7.072  22.833   2.859  1.00  0.00     0.084 H 
ATOM    103  CE1 PHE C   7       8.549  23.772   1.679  1.00  0.00    -0.082 A 
ATOM    104  HE1 PHE C   7       8.698  22.771   1.056  1.00  0.00     0.083 H 
ATOM    105  CZ  PHE C   7       9.564  24.720   1.506  1.00  0.00    -0.083 A 
ATOM    106  HZ  PHE C   7      10.232  24.728   0.524  1.00  0.00     0.083 H 
ATOM    107  CE2 PHE C   7       9.841  25.648   2.515  1.00  0.00    -0.082 A 
ATOM    108  HE2 PHE C   7      10.837  26.289   2.418  1.00  0.00     0.083 H 
ATOM    109  CD2 PHE C   7       9.017  25.703   3.652  1.00  0.00    -0.077 A 
ATOM    110  HD2 PHE C   7       9.274  26.693   4.258  1.00  0.00     0.084 H 
ATOM    111  N   TYR C   8       4.613  26.150   4.025  1.00  0.00    -0.346 N 
ATOM    112  H   TYR C   8       5.015  27.154   4.520  1.00  0.00     0.163 HD
ATOM    113  CA  TYR C   8       3.791  26.386   2.813  1.00  0.00     0.093 C 
ATOM    114  HA  TYR C   8       3.395  25.336   2.420  1.00  0.00     0.088 H 
ATOM    115  C   TYR C   8       4.585  27.223   1.790  1.00  0.00     0.241 C 
ATOM    116  O   TYR C   8       5.241  28.204   2.156  1.00  0.00    -0.271 OA
ATOM    117  CB  TYR C   8       2.508  27.140   3.171  1.00  0.00    -0.014 C 
ATOM    118  HB2 TYR C   8       1.693  27.055   2.298  1.00  0.00     0.043 H 
ATOM    119  HB3 TYR C   8       2.723  28.316   3.138  1.00  0.00     0.043 H 
ATOM    120  CG  TYR C   8       1.698  26.821   4.398  1.00  0.00    -0.056 A 
ATOM    121  CD1 TYR C   8       0.985  25.617   4.520  1.00  0.00    -0.074 A 
ATOM    122  HD1 TYR C   8       0.562  24.969   3.617  1.00  0.00     0.084 H 
ATOM    123  CE1 TYR C   8       0.395  25.291   5.758  1.00  0.00    -0.051 A 
ATOM    124  HE1 TYR C   8      -0.676  24.773   5.718  1.00  0.00     0.087 H 
ATOM    125  CZ  TYR C   8       0.535  26.174   6.843  1.00  0.00     0.065 A 
ATOM    126  OH  TYR C   8       0.081  25.814   8.086  1.00  0.00    -0.361 OA
ATOM    127  HH  TYR C   8       0.706  26.361   8.929  1.00  0.00     0.217 HD
ATOM    128  CE2 TYR C   8       1.139  27.429   6.685  1.00  0.00    -0.051 A 
ATOM    129  HE2 TYR C   8       1.023  28.318   7.465  1.00  0.00     0.087 H 
ATOM    130  CD2 TYR C   8       1.694  27.768   5.439  1.00  0.00    -0.074 A 
ATOM    131  HD2 TYR C   8       1.853  28.942   5.347  1.00  0.00     0.084 H 
ATOM    132  N   LYS C   9       4.546  26.132   0.205  1.00  0.00    -0.345 N 
ATOM    133  H   LYS C   9       3.586  25.439   0.175  1.00  0.00     0.163 HD
ATOM    134  CA  LYS C   9       5.446  26.214  -0.946  1.00  0.00     0.096 C 
ATOM    135  HA  LYS C   9       6.561  26.118  -0.543  1.00  0.00     0.089 H 
ATOM    136  C   LYS C   9       5.417  27.680  -1.532  1.00  0.00     0.196 C 
ATOM    137  O   LYS C   9       4.546  28.498  -1.140  1.00  0.00    -0.646 OA
ATOM    138  CB  LYS C   9       5.010  25.222  -2.159  1.00  0.00    -0.037 C 
ATOM    139  HB2 LYS C   9       5.242  25.932  -3.092  1.00  0.00     0.036 H 
ATOM    140  HB3 LYS C   9       3.818  25.165  -2.109  1.00  0.00     0.036 H 
ATOM    141  CG  LYS C   9       5.792  23.918  -2.414  1.00  0.00    -0.061 C 
ATOM    142  HG2 LYS C   9       5.718  23.191  -1.468  1.00  0.00     0.033 H 
ATOM    143  HG3 LYS C   9       6.950  24.154  -2.581  1.00  0.00     0.033 H 
ATOM    144  CD  LYS C   9       4.982  23.399  -3.604  1.00  0.00    -0.043 C 
ATOM    145  HD2 LYS C   9       4.646  24.119  -4.499  1.00  0.00     0.035 H 
ATOM    146  HD3 LYS C   9       3.919  23.016  -3.202  1.00  0.00     0.035 H 
ATOM    147  CE  LYS C   9       5.562  22.119  -4.151  1.00  0.00     0.080 C 
ATOM    148  HE2 LYS C   9       4.754  21.309  -4.511  1.00  0.00     0.075 H 
ATOM    149  HE3 LYS C   9       6.200  21.456  -3.387  1.00  0.00     0.075 H 
ATOM    150  NZ  LYS C   9       6.375  22.512  -5.309  1.00  0.00    -0.079 N 
ATOM    151  HZ1 LYS C   9       7.310  21.763  -5.397  1.00  0.00     0.274 HD
ATOM    152  HZ2 LYS C   9       6.916  23.562  -5.521  1.00  0.00     0.274 HD
ATOM    153  HZ3 LYS C   9       5.777  22.336  -6.334  1.00  0.00     0.274 HD
ATOM    154  OXT LYS C   9       6.235  28.085  -2.374  1.00  0.00    -0.646 OA
ENDROOT
TORSDOF 43
