REMARK  0 active torsions:
REMARK  status: ('A' for Active; 'I' for Inactive)
REMARK       I    between atoms: N_1  and  CA_5 
REMARK       I    between atoms: CA_5  and  C_7 
REMARK       I    between atoms: CA_5  and  CB_9 
REMARK       I    between atoms: C_7  and  N_14 
REMARK       I    between atoms: CB_9  and  OG_12 
REMARK       I    between atoms: N_14  and  CA_16 
REMARK       I    between atoms: CA_16  and  CB_20 
REMARK       I    between atoms: CA_16  and  C_18 
REMARK       I    between atoms: C_18  and  N_28 
REMARK       I    between atoms: CB_20  and  CG2_22 
REMARK       I    between atoms: CB_20  and  OG1_26 
REMARK       I    between atoms: N_28  and  CA_30 
REMARK       I    between atoms: CA_30  and  CB_34 
REMARK       I    between atoms: CA_30  and  C_32 
REMARK       I    between atoms: C_32  and  N_48 
REMARK       I    between atoms: CB_34  and  CG_37 
REMARK       I    between atoms: N_48  and  CA_50 
REMARK       I    between atoms: CA_50  and  C_52 
REMARK       I    between atoms: CA_50  and  CB_54 
REMARK       I    between atoms: C_52  and  N_60 
REMARK       I    between atoms: CB_54  and  CG_57 
REMARK       I    between atoms: N_60  and  CA_62 
REMARK       I    between atoms: CA_62  and  CB_66 
REMARK       I    between atoms: CA_62  and  C_64 
REMARK       I    between atoms: C_64  and  N_75 
REMARK       I    between atoms: CB_66  and  CG_69 
REMARK       I    between atoms: CG_69  and  CD_72 
REMARK       I    between atoms: N_75  and  CA_77 
REMARK       I    between atoms: CA_77  and  C_79 
REMARK       I    between atoms: CA_77  and  CB_81 
REMARK       I    between atoms: C_79  and  N_91 
REMARK       I    between atoms: CB_81  and  CG1_83 
REMARK       I    between atoms: CB_81  and  CG2_87 
REMARK       I    between atoms: N_91  and  CA_93 
REMARK       I    between atoms: CA_93  and  C_95 
REMARK       I    between atoms: CA_93  and  CB_97 
REMARK       I    between atoms: C_95  and  N_111 
REMARK       I    between atoms: CB_97  and  CG_100 
REMARK       I    between atoms: N_111  and  CA_113 
REMARK       I    between atoms: CA_113  and  C_115 
REMARK       I    between atoms: CA_113  and  CB_117 
REMARK       I    between atoms: CB_117  and  CG_120 
REMARK       I    between atoms: CZ_125  and  OH_126 
REMARK       I    between atoms: N_132  and  CA_134 
REMARK       I    between atoms: CA_134  and  CB_138 
REMARK       I    between atoms: CA_134  and  C_136 
REMARK       I    between atoms: CB_138  and  CG_141 
REMARK       I    between atoms: CG_141  and  CD_144 
REMARK       I    between atoms: CD_144  and  CE_147 
REMARK       I    between atoms: CE_147  and  NZ_150 
ROOT
ATOM      1  N   SER C   1       3.569  10.245  15.174  1.00  0.00    -0.064 N 
ATOM      2  H   SER C   1       2.866   9.376  15.614  1.00  0.00     0.275 HD
ATOM      3  H2  SER C   1       3.591  10.004  13.999  1.00  0.00     0.275 HD
ATOM      4  H3  SER C   1       4.663   9.922  15.544  1.00  0.00     0.275 HD
ATOM      5  CA  SER C   1       3.063  11.615  15.582  1.00  0.00     0.195 C 
ATOM      6  HA  SER C   1       1.898  11.504  15.823  1.00  0.00     0.102 H 
ATOM      7  C   SER C   1       3.501  12.536  14.439  1.00  0.00     0.251 C 
ATOM      8  O   SER C   1       4.647  12.524  13.986  1.00  0.00    -0.271 OA
ATOM      9  CB  SER C   1       3.799  12.126  16.857  1.00  0.00     0.051 C 
ATOM     10  HB2 SER C   1       3.293  13.138  17.231  1.00  0.00     0.077 H 
ATOM     11  HB3 SER C   1       4.968  12.349  16.755  1.00  0.00     0.077 H 
ATOM     12  OG  SER C   1       3.756  11.239  17.958  1.00  0.00    -0.398 OA
ATOM     13  HG  SER C   1       3.915  11.825  18.976  1.00  0.00     0.209 HD
ATOM     14  N   THR C   2       2.645  13.462  14.123  1.00  0.00    -0.344 N 
ATOM     15  H   THR C   2       1.836  13.847  14.909  1.00  0.00     0.163 HD
ATOM     16  CA  THR C   2       2.846  14.378  12.987  1.00  0.00     0.113 C 
ATOM     17  HA  THR C   2       3.312  13.634  12.176  1.00  0.00     0.091 H 
ATOM     18  C   THR C   2       3.766  15.521  13.358  1.00  0.00     0.243 C 
ATOM     19  O   THR C   2       3.873  15.884  14.534  1.00  0.00    -0.271 OA
ATOM     20  CB  THR C   2       1.511  14.974  12.535  1.00  0.00     0.060 C 
ATOM     21  HB  THR C   2       1.599  14.655  11.380  1.00  0.00     0.086 H 
ATOM     22  CG2 THR C   2       1.345  16.467  12.238  1.00  0.00    -0.050 C 
ATOM     23 1HG2 THR C   2       0.217  16.713  12.565  1.00  0.00     0.031 H 
ATOM     24 2HG2 THR C   2       1.334  16.819  11.091  1.00  0.00     0.031 H 
ATOM     25 3HG2 THR C   2       1.880  17.332  12.862  1.00  0.00     0.031 H 
ATOM     26  OG1 THR C   2       0.347  14.164  12.514  1.00  0.00    -0.393 OA
ATOM     27  HG1 THR C   2      -0.355  14.434  13.428  1.00  0.00     0.210 HD
ATOM     28  N   PHE C   3       4.439  16.099  12.364  1.00  0.00    -0.346 N 
ATOM     29  H   PHE C   3       4.452  15.653  11.260  1.00  0.00     0.163 HD
ATOM     30  CA  PHE C   3       5.339  17.221  12.598  1.00  0.00     0.088 C 
ATOM     31  HA  PHE C   3       5.255  17.630  13.717  1.00  0.00     0.087 H 
ATOM     32  C   PHE C   3       5.039  18.363  11.636  1.00  0.00     0.221 C 
ATOM     33  O   PHE C   3       4.872  18.142  10.432  1.00  0.00    -0.278 OA
ATOM     34  CB  PHE C   3       6.794  16.794  12.397  1.00  0.00    -0.014 C 
ATOM     35  HB2 PHE C   3       6.899  15.660  12.032  1.00  0.00     0.043 H 
ATOM     36  HB3 PHE C   3       7.233  16.685  13.503  1.00  0.00     0.043 H 
ATOM     37  CG  PHE C   3       7.959  17.322  11.592  1.00  0.00    -0.056 A 
ATOM     38  CD1 PHE C   3       7.909  17.363  10.187  1.00  0.00    -0.077 A 
ATOM     39  HD1 PHE C   3       7.194  16.718   9.494  1.00  0.00     0.084 H 
ATOM     40  CE1 PHE C   3       9.066  17.665   9.458  1.00  0.00    -0.082 A 
ATOM     41  HE1 PHE C   3       9.187  17.421   8.304  1.00  0.00     0.083 H 
ATOM     42  CZ  PHE C   3      10.240  18.038  10.131  1.00  0.00    -0.083 A 
ATOM     43  HZ  PHE C   3      11.236  18.254   9.526  1.00  0.00     0.083 H 
ATOM     44  CE2 PHE C   3      10.291  18.011  11.536  1.00  0.00    -0.082 A 
ATOM     45  HE2 PHE C   3      11.361  18.040  12.052  1.00  0.00     0.083 H 
ATOM     46  CD2 PHE C   3       9.135  17.720  12.260  1.00  0.00    -0.077 A 
ATOM     47  HD2 PHE C   3       9.295  17.997  13.404  1.00  0.00     0.084 H 
ATOM     48  N   ASP C   4       4.968  19.587  12.159  1.00  0.00    -0.247 NA
ATOM     49  H   ASP C   4       4.184  19.588  13.057  1.00  0.00     0.131 HD
ATOM     50  CA  ASP C   4       4.706  20.758  11.332  1.00  0.00     0.085 C 
ATOM     51  HA  ASP C   4       3.616  20.603  10.871  1.00  0.00     0.080 H 
ATOM     52  C   ASP C   4       5.801  20.937  10.288  1.00  0.00     0.236 C 
ATOM     53  O   ASP C   4       6.975  20.663  10.557  1.00  0.00    -0.272 OA
ATOM     54  CB  ASP C   4       4.653  22.022  12.193  1.00  0.00     0.039 C 
ATOM     55  HB2 ASP C   4       3.536  22.303  12.516  1.00  0.00     0.052 H 
ATOM     56  HB3 ASP C   4       5.093  23.033  11.735  1.00  0.00     0.052 H 
ATOM     57  CG  ASP C   4       5.378  21.964  13.541  1.00  0.00     0.174 C 
ATOM     58  OD1 ASP C   4       5.992  20.918  13.842  1.00  0.00    -0.648 OA
ATOM     59  OD2 ASP C   4       5.364  23.017  14.243  1.00  0.00    -0.648 OA
ATOM     60  N   GLU C   5       5.425  21.397   9.095  1.00  0.00    -0.346 N 
ATOM     61  H   GLU C   5       4.304  21.756   8.923  1.00  0.00     0.163 HD
ATOM     62  CA  GLU C   5       6.388  21.626   8.025  1.00  0.00     0.090 C 
ATOM     63  HA  GLU C   5       7.023  20.618   8.038  1.00  0.00     0.087 H 
ATOM     64  C   GLU C   5       7.112  22.951   8.227  1.00  0.00     0.241 C 
ATOM     65  O   GLU C   5       6.514  23.930   8.684  1.00  0.00    -0.271 OA
ATOM     66  CB  GLU C   5       5.683  21.667   6.668  1.00  0.00    -0.029 C 
ATOM     67  HB2 GLU C   5       4.899  22.564   6.561  1.00  0.00     0.037 H 
ATOM     68  HB3 GLU C   5       4.931  20.735   6.619  1.00  0.00     0.037 H 
ATOM     69  CG  GLU C   5       6.576  21.617   5.422  1.00  0.00     0.018 C 
ATOM     70  HG2 GLU C   5       6.881  20.456   5.480  1.00  0.00     0.049 H 
ATOM     71  HG3 GLU C   5       7.684  21.867   5.050  1.00  0.00     0.049 H 
ATOM     72  CD  GLU C   5       5.786  21.515   4.111  1.00  0.00     0.172 C 
ATOM     73  OE1 GLU C   5       5.590  22.555   3.443  1.00  0.00    -0.648 OA
ATOM     74  OE2 GLU C   5       5.576  20.373   3.661  1.00  0.00    -0.648 OA
ATOM     75  N   VAL C   6       8.400  22.990   7.887  1.00  0.00    -0.346 N 
ATOM     76  H   VAL C   6       8.974  21.966   7.700  1.00  0.00     0.163 HD
ATOM     77  CA  VAL C   6       9.190  24.209   8.018  1.00  0.00     0.092 C 
ATOM     78  HA  VAL C   6       8.920  24.872   8.974  1.00  0.00     0.088 H 
ATOM     79  C   VAL C   6       8.898  25.167   6.870  1.00  0.00     0.241 C 
ATOM     80  O   VAL C   6       9.366  26.310   6.872  1.00  0.00    -0.271 OA
ATOM     81  CB  VAL C   6      10.686  23.885   8.003  1.00  0.00    -0.033 C 
ATOM     82  HB  VAL C   6      11.029  23.183   7.094  1.00  0.00     0.042 H 
ATOM     83  CG1 VAL C   6      11.706  25.014   7.805  1.00  0.00    -0.071 C 
ATOM     84 1HG1 VAL C   6      12.767  24.869   8.338  1.00  0.00     0.028 H 
ATOM     85 2HG1 VAL C   6      12.071  25.189   6.680  1.00  0.00     0.028 H 
ATOM     86 3HG1 VAL C   6      11.462  26.135   8.154  1.00  0.00     0.028 H 
ATOM     87  CG2 VAL C   6      11.019  23.158   9.295  1.00  0.00    -0.071 C 
ATOM     88 1HG2 VAL C   6      11.461  22.064   9.081  1.00  0.00     0.028 H 
ATOM     89 2HG2 VAL C   6      10.210  23.010  10.166  1.00  0.00     0.028 H 
ATOM     90 3HG2 VAL C   6      11.890  23.611   9.984  1.00  0.00     0.028 H 
ATOM     91  N   PHE C   7       8.125  24.704   5.889  1.00  0.00    -0.346 N 
ATOM     92  H   PHE C   7       7.283  23.892   6.080  1.00  0.00     0.163 HD
ATOM     93  CA  PHE C   7       7.760  25.532   4.746  1.00  0.00     0.093 C 
ATOM     94  HA  PHE C   7       7.693  26.652   5.154  1.00  0.00     0.088 H 
ATOM     95  C   PHE C   7       6.369  25.170   4.240  1.00  0.00     0.241 C 
ATOM     96  O   PHE C   7       5.954  24.010   4.323  1.00  0.00    -0.271 OA
ATOM     97  CB  PHE C   7       8.754  25.335   3.599  1.00  0.00    -0.017 C 
ATOM     98  HB2 PHE C   7       9.647  24.576   3.846  1.00  0.00     0.043 H 
ATOM     99  HB3 PHE C   7       9.323  26.388   3.584  1.00  0.00     0.043 H 
ATOM    100  CG  PHE C   7       8.555  24.953   2.147  1.00  0.00    -0.069 A 
ATOM    101  CD1 PHE C   7       7.965  23.730   1.786  1.00  0.00    -0.005 A 
ATOM    102  HD1 PHE C   7       8.373  22.779   2.371  1.00  0.00     0.054 H 
ATOM    103  CE1 PHE C   7       7.955  23.312   0.449  1.00  0.00    -0.094 A 
ATOM    104  HE1 PHE C   7       7.748  22.173   0.178  1.00  0.00     0.077 H 
ATOM    105  CZ  PHE C   7       8.466  24.161  -0.544  1.00  0.00    -0.086 A 
ATOM    106  HZ  PHE C   7       9.134  23.603  -1.355  1.00  0.00     0.083 H 
ATOM    107  CE2 PHE C   7       9.033  25.397  -0.194  1.00  0.00    -0.083 A 
ATOM    108  HE2 PHE C   7       9.736  25.957  -0.974  1.00  0.00     0.083 H 
ATOM    109  CD2 PHE C   7       9.019  25.817   1.139  1.00  0.00    -0.080 A 
ATOM    110  HD2 PHE C   7       9.492  26.904   1.229  1.00  0.00     0.083 H 
ATOM    111  N   TYR C   8       5.644  26.157   3.716  1.00  0.00    -0.349 N 
ATOM    112  H   TYR C   8       6.019  27.279   3.575  1.00  0.00     0.163 HD
ATOM    113  CA  TYR C   8       4.283  25.921   3.173  1.00  0.00     0.082 C 
ATOM    114  HA  TYR C   8       3.812  24.828   3.137  1.00  0.00     0.081 H 
ATOM    115  C   TYR C   8       4.269  26.181   1.654  1.00  0.00     0.374 A 
ATOM    116  O   TYR C   8       4.839  27.170   1.181  1.00  0.00    -0.147 OA
ATOM    117  CB  TYR C   8       3.270  26.855   3.838  1.00  0.00    -0.017 C 
ATOM    118  HB2 TYR C   8       2.166  26.422   3.680  1.00  0.00     0.043 H 
ATOM    119  HB3 TYR C   8       3.167  27.891   3.253  1.00  0.00     0.043 H 
ATOM    120  CG  TYR C   8       3.293  27.143   5.311  1.00  0.00    -0.056 A 
ATOM    121  CD1 TYR C   8       2.967  26.162   6.264  1.00  0.00    -0.074 A 
ATOM    122  HD1 TYR C   8       2.162  25.306   6.102  1.00  0.00     0.084 H 
ATOM    123  CE1 TYR C   8       3.199  26.431   7.627  1.00  0.00    -0.051 A 
ATOM    124  HE1 TYR C   8       2.701  25.779   8.485  1.00  0.00     0.087 H 
ATOM    125  CZ  TYR C   8       3.726  27.680   8.005  1.00  0.00     0.065 A 
ATOM    126  OH  TYR C   8       4.061  27.919   9.302  1.00  0.00    -0.361 OA
ATOM    127  HH  TYR C   8       5.201  28.225   9.373  1.00  0.00     0.217 HD
ATOM    128  CE2 TYR C   8       3.925  28.703   7.059  1.00  0.00    -0.051 A 
ATOM    129  HE2 TYR C   8       4.131  29.819   7.412  1.00  0.00     0.087 H 
ATOM    130  CD2 TYR C   8       3.673  28.435   5.704  1.00  0.00    -0.074 A 
ATOM    131  HD2 TYR C   8       3.562  29.454   5.105  1.00  0.00     0.084 H 
ATOM    132  N   LYS C   9       4.546  26.132   0.205  1.00  0.00     0.103 N 
ATOM    133  H   LYS C   9       3.403  25.917  -0.059  1.00  0.00     0.323 HD
ATOM    134  CA  LYS C   9       5.446  26.214  -0.946  1.00  0.00     0.218 C 
ATOM    135  HA  LYS C   9       6.575  26.216  -0.583  1.00  0.00     0.106 H 
ATOM    136  C   LYS C   9       5.417  27.680  -1.532  1.00  0.00     0.208 C 
ATOM    137  O   LYS C   9       4.546  28.498  -1.140  1.00  0.00    -0.646 OA
ATOM    138  CB  LYS C   9       5.010  25.222  -2.159  1.00  0.00    -0.025 C 
ATOM    139  HB2 LYS C   9       3.820  25.119  -2.090  1.00  0.00     0.036 H 
ATOM    140  HB3 LYS C   9       5.179  25.924  -3.113  1.00  0.00     0.036 H 
ATOM    141  CG  LYS C   9       5.761  23.921  -2.422  1.00  0.00    -0.061 C 
ATOM    142  HG2 LYS C   9       5.623  23.192  -1.490  1.00  0.00     0.033 H 
ATOM    143  HG3 LYS C   9       6.881  24.136  -2.763  1.00  0.00     0.033 H 
ATOM    144  CD  LYS C   9       4.953  23.419  -3.611  1.00  0.00    -0.043 C 
ATOM    145  HD2 LYS C   9       4.615  24.115  -4.526  1.00  0.00     0.035 H 
ATOM    146  HD3 LYS C   9       3.892  23.017  -3.222  1.00  0.00     0.035 H 
ATOM    147  CE  LYS C   9       5.559  22.134  -4.144  1.00  0.00     0.080 C 
ATOM    148  HE2 LYS C   9       4.711  21.373  -4.514  1.00  0.00     0.075 H 
ATOM    149  HE3 LYS C   9       6.160  21.414  -3.402  1.00  0.00     0.075 H 
ATOM    150  NZ  LYS C   9       6.364  22.530  -5.299  1.00  0.00    -0.079 N 
ATOM    151  HZ1 LYS C   9       7.274  21.759  -5.421  1.00  0.00     0.274 HD
ATOM    152  HZ2 LYS C   9       5.762  22.391  -6.324  1.00  0.00     0.274 HD
ATOM    153  HZ3 LYS C   9       6.928  23.568  -5.486  1.00  0.00     0.274 HD
ATOM    154  OXT LYS C   9       6.321  27.961  -2.408  1.00  0.00    -0.646 OA
ENDROOT
TORSDOF 43
