REMARK  0 active torsions:
REMARK  status: ('A' for Active; 'I' for Inactive)
REMARK       I    between atoms: N_1  and  CA_5 
REMARK       I    between atoms: CA_5  and  C_7 
REMARK       I    between atoms: CA_5  and  CB_9 
REMARK       I    between atoms: C_7  and  N_14 
REMARK       I    between atoms: CB_9  and  OG_12 
REMARK       I    between atoms: N_14  and  CA_16 
REMARK       I    between atoms: CA_16  and  CB_20 
REMARK       I    between atoms: CA_16  and  C_18 
REMARK       I    between atoms: C_18  and  N_28 
REMARK       I    between atoms: CB_20  and  OG1_26 
REMARK       I    between atoms: CB_20  and  CG2_22 
REMARK       I    between atoms: N_28  and  CA_30 
REMARK       I    between atoms: CA_30  and  CB_34 
REMARK       I    between atoms: CA_30  and  C_32 
REMARK       I    between atoms: C_32  and  N_48 
REMARK       I    between atoms: CB_34  and  CG_37 
REMARK       I    between atoms: N_48  and  CA_50 
REMARK       I    between atoms: CA_50  and  C_52 
REMARK       I    between atoms: CA_50  and  CB_54 
REMARK       I    between atoms: C_52  and  N_60 
REMARK       I    between atoms: CB_54  and  CG_57 
REMARK       I    between atoms: N_60  and  CA_62 
REMARK       I    between atoms: CA_62  and  C_64 
REMARK       I    between atoms: CA_62  and  CB_66 
REMARK       I    between atoms: C_64  and  N_75 
REMARK       I    between atoms: CB_66  and  CG_69 
REMARK       I    between atoms: CG_69  and  CD_72 
REMARK       I    between atoms: N_75  and  CA_77 
REMARK       I    between atoms: CA_77  and  CB_81 
REMARK       I    between atoms: CA_77  and  C_79 
REMARK       I    between atoms: C_79  and  N_91 
REMARK       I    between atoms: CB_81  and  CG2_87 
REMARK       I    between atoms: CB_81  and  CG1_83 
REMARK       I    between atoms: N_91  and  CA_93 
REMARK       I    between atoms: CA_93  and  C_95 
REMARK       I    between atoms: CA_93  and  CB_97 
REMARK       I    between atoms: C_95  and  N_111 
REMARK       I    between atoms: CB_97  and  CG_100 
REMARK       I    between atoms: N_111  and  CA_113 
REMARK       I    between atoms: CA_113  and  CB_117 
REMARK       I    between atoms: CA_113  and  C_115 
REMARK       I    between atoms: N_132  and  C_115 
REMARK       I    between atoms: CB_117  and  CG_120 
REMARK       I    between atoms: CZ_125  and  OH_126 
REMARK       I    between atoms: N_132  and  CA_134 
REMARK       I    between atoms: CA_134  and  C_136 
REMARK       I    between atoms: CA_134  and  CB_138 
REMARK       I    between atoms: CB_138  and  CG_141 
REMARK       I    between atoms: CG_141  and  CD_144 
REMARK       I    between atoms: CD_144  and  CE_147 
REMARK       I    between atoms: CE_147  and  NZ_150 
ROOT
ATOM      1  N   SER C   1       3.569  10.245  15.174  1.00  0.00    -0.064 N 
ATOM      2  H   SER C   1       4.739  10.038  15.021  1.00  0.00     0.275 HD
ATOM      3  H2  SER C   1       3.244   9.380  15.939  1.00  0.00     0.275 HD
ATOM      4  H3  SER C   1       3.049   9.882  14.156  1.00  0.00     0.275 HD
ATOM      5  CA  SER C   1       3.063  11.615  15.582  1.00  0.00     0.195 C 
ATOM      6  HA  SER C   1       1.908  11.502  15.859  1.00  0.00     0.102 H 
ATOM      7  C   SER C   1       3.501  12.536  14.439  1.00  0.00     0.251 C 
ATOM      8  O   SER C   1       4.647  12.524  13.986  1.00  0.00    -0.271 OA
ATOM      9  CB  SER C   1       3.799  12.126  16.857  1.00  0.00     0.051 C 
ATOM     10  HB2 SER C   1       3.181  13.025  17.328  1.00  0.00     0.077 H 
ATOM     11  HB3 SER C   1       4.942  12.458  16.739  1.00  0.00     0.077 H 
ATOM     12  OG  SER C   1       3.743  11.227  17.948  1.00  0.00    -0.398 OA
ATOM     13  HG  SER C   1       4.627  11.429  18.708  1.00  0.00     0.209 HD
ATOM     14  N   THR C   2       2.645  13.462  14.123  1.00  0.00    -0.344 N 
ATOM     15  H   THR C   2       1.832  13.827  14.910  1.00  0.00     0.163 HD
ATOM     16  CA  THR C   2       2.846  14.378  12.987  1.00  0.00     0.113 C 
ATOM     17  HA  THR C   2       3.287  13.623  12.173  1.00  0.00     0.091 H 
ATOM     18  C   THR C   2       3.766  15.521  13.358  1.00  0.00     0.243 C 
ATOM     19  O   THR C   2       3.873  15.884  14.534  1.00  0.00    -0.271 OA
ATOM     20  CB  THR C   2       1.511  14.974  12.535  1.00  0.00     0.060 C 
ATOM     21  HB  THR C   2       1.612  14.640  11.387  1.00  0.00     0.086 H 
ATOM     22  CG2 THR C   2       1.334  16.468  12.252  1.00  0.00    -0.050 C 
ATOM     23 1HG2 THR C   2       1.887  17.327  12.873  1.00  0.00     0.031 H 
ATOM     24 2HG2 THR C   2       1.026  16.768  11.133  1.00  0.00     0.031 H 
ATOM     25 3HG2 THR C   2       0.250  16.669  12.737  1.00  0.00     0.031 H 
ATOM     26  OG1 THR C   2       0.353  14.155  12.519  1.00  0.00    -0.393 OA
ATOM     27  HG1 THR C   2      -0.333  14.374  13.458  1.00  0.00     0.210 HD
ATOM     28  N   PHE C   3       4.439  16.099  12.364  1.00  0.00    -0.346 N 
ATOM     29  H   PHE C   3       4.708  15.408  11.433  1.00  0.00     0.163 HD
ATOM     30  CA  PHE C   3       5.339  17.221  12.598  1.00  0.00     0.093 C 
ATOM     31  HA  PHE C   3       5.165  17.731  13.662  1.00  0.00     0.088 H 
ATOM     32  C   PHE C   3       5.085  18.335  11.591  1.00  0.00     0.241 C 
ATOM     33  O   PHE C   3       5.922  19.227  11.418  1.00  0.00    -0.271 OA
ATOM     34  CB  PHE C   3       6.797  16.777  12.466  1.00  0.00    -0.014 C 
ATOM     35  HB2 PHE C   3       6.915  15.867  13.233  1.00  0.00     0.043 H 
ATOM     36  HB3 PHE C   3       7.070  16.438  11.355  1.00  0.00     0.043 H 
ATOM     37  CG  PHE C   3       8.057  17.512  12.894  1.00  0.00    -0.056 A 
ATOM     38  CD1 PHE C   3       8.052  18.764  13.528  1.00  0.00    -0.077 A 
ATOM     39  HD1 PHE C   3       7.337  19.122  14.406  1.00  0.00     0.084 H 
ATOM     40  CE1 PHE C   3       9.268  19.457  13.721  1.00  0.00    -0.082 A 
ATOM     41  HE1 PHE C   3       9.328  20.568  14.137  1.00  0.00     0.083 H 
ATOM     42  CZ  PHE C   3      10.487  18.843  13.395  1.00  0.00    -0.083 A 
ATOM     43  HZ  PHE C   3      11.512  19.408  13.596  1.00  0.00     0.083 H 
ATOM     44  CE2 PHE C   3      10.505  17.562  12.845  1.00  0.00    -0.082 A 
ATOM     45  HE2 PHE C   3      11.563  17.084  12.593  1.00  0.00     0.083 H 
ATOM     46  CD2 PHE C   3       9.287  16.896  12.608  1.00  0.00    -0.077 A 
ATOM     47  HD2 PHE C   3       9.513  15.741  12.439  1.00  0.00     0.084 H 
ATOM     48  N   ASP C   4       3.933  18.292  10.924  1.00  0.00    -0.345 N 
ATOM     49  H   ASP C   4       3.340  17.340  10.543  1.00  0.00     0.163 HD
ATOM     50  CA  ASP C   4       3.574  19.315   9.949  1.00  0.00     0.098 C 
ATOM     51  HA  ASP C   4       2.574  19.120   9.327  1.00  0.00     0.088 H 
ATOM     52  C   ASP C   4       4.707  19.535   8.955  1.00  0.00     0.241 C 
ATOM     53  O   ASP C   4       5.080  20.678   8.672  1.00  0.00    -0.271 OA
ATOM     54  CB  ASP C   4       3.284  20.645  10.648  1.00  0.00     0.043 C 
ATOM     55  HB2 ASP C   4       2.141  20.620  11.005  1.00  0.00     0.052 H 
ATOM     56  HB3 ASP C   4       3.336  21.664  10.023  1.00  0.00     0.052 H 
ATOM     57  CG  ASP C   4       3.928  21.031  11.990  1.00  0.00     0.175 C 
ATOM     58  OD1 ASP C   4       4.778  20.259  12.459  1.00  0.00    -0.648 OA
ATOM     59  OD2 ASP C   4       3.593  22.111  12.506  1.00  0.00    -0.648 OA
ATOM     60  N   GLU C   5       5.259  18.446   8.422  1.00  0.00    -0.346 N 
ATOM     61  H   GLU C   5       4.671  17.418   8.371  1.00  0.00     0.163 HD
ATOM     62  CA  GLU C   5       6.337  18.534   7.446  1.00  0.00     0.090 C 
ATOM     63  HA  GLU C   5       7.120  19.383   7.742  1.00  0.00     0.087 H 
ATOM     64  C   GLU C   5       5.802  18.974   6.089  1.00  0.00     0.241 C 
ATOM     65  O   GLU C   5       6.521  18.931   5.086  1.00  0.00    -0.271 OA
ATOM     66  CB  GLU C   5       7.019  17.175   7.273  1.00  0.00    -0.029 C 
ATOM     67  HB2 GLU C   5       6.700  16.569   6.291  1.00  0.00     0.037 H 
ATOM     68  HB3 GLU C   5       6.809  16.380   8.140  1.00  0.00     0.037 H 
ATOM     69  CG  GLU C   5       8.557  17.158   7.250  1.00  0.00     0.018 C 
ATOM     70  HG2 GLU C   5       9.114  17.755   8.123  1.00  0.00     0.049 H 
ATOM     71  HG3 GLU C   5       9.002  17.587   6.226  1.00  0.00     0.049 H 
ATOM     72  CD  GLU C   5       9.197  15.765   7.330  1.00  0.00     0.172 C 
ATOM     73  OE1 GLU C   5       9.546  15.233   6.262  1.00  0.00    -0.648 OA
ATOM     74  OE2 GLU C   5       9.627  15.417   8.445  1.00  0.00    -0.648 OA
ATOM     75  N   VAL C   6       4.540  19.399   6.050  1.00  0.00    -0.346 N 
ATOM     76  H   VAL C   6       3.658  19.507   6.834  1.00  0.00     0.163 HD
ATOM     77  CA  VAL C   6       3.925  19.864   4.811  1.00  0.00     0.092 C 
ATOM     78  HA  VAL C   6       4.579  19.830   3.813  1.00  0.00     0.088 H 
ATOM     79  C   VAL C   6       3.673  21.365   4.864  1.00  0.00     0.241 C 
ATOM     80  O   VAL C   6       2.620  21.840   4.427  1.00  0.00    -0.271 OA
ATOM     81  CB  VAL C   6       2.586  19.160   4.578  1.00  0.00    -0.033 C 
ATOM     82  HB  VAL C   6       1.849  19.068   5.513  1.00  0.00     0.042 H 
ATOM     83  CG1 VAL C   6       1.548  19.722   3.599  1.00  0.00    -0.071 C 
ATOM     84 1HG1 VAL C   6       1.979  19.972   2.508  1.00  0.00     0.028 H 
ATOM     85 2HG1 VAL C   6       0.840  20.638   3.917  1.00  0.00     0.028 H 
ATOM     86 3HG1 VAL C   6       0.650  18.963   3.348  1.00  0.00     0.028 H 
ATOM     87  CG2 VAL C   6       2.949  17.767   4.116  1.00  0.00    -0.071 C 
ATOM     88 1HG2 VAL C   6       3.968  17.521   3.533  1.00  0.00     0.028 H 
ATOM     89 2HG2 VAL C   6       2.878  16.971   5.011  1.00  0.00     0.028 H 
ATOM     90 3HG2 VAL C   6       2.201  17.221   3.349  1.00  0.00     0.028 H 
ATOM     91  N   PHE C   7       4.637  22.113   5.399  1.00  0.00    -0.346 N 
ATOM     92  H   PHE C   7       5.760  21.771   5.211  1.00  0.00     0.163 HD
ATOM     93  CA  PHE C   7       4.520  23.563   5.488  1.00  0.00     0.093 C 
ATOM     94  HA  PHE C   7       3.444  23.714   5.982  1.00  0.00     0.088 H 
ATOM     95  C   PHE C   7       4.683  24.203   4.115  1.00  0.00     0.241 C 
ATOM     96  O   PHE C   7       5.406  23.680   3.261  1.00  0.00    -0.271 OA
ATOM     97  CB  PHE C   7       5.596  24.134   6.413  1.00  0.00    -0.014 C 
ATOM     98  HB2 PHE C   7       4.957  24.517   7.349  1.00  0.00     0.043 H 
ATOM     99  HB3 PHE C   7       6.329  23.350   6.942  1.00  0.00     0.043 H 
ATOM    100  CG  PHE C   7       6.649  25.208   6.180  1.00  0.00    -0.056 A 
ATOM    101  CD1 PHE C   7       7.641  25.077   5.195  1.00  0.00    -0.077 A 
ATOM    102  HD1 PHE C   7       8.023  24.065   4.705  1.00  0.00     0.084 H 
ATOM    103  CE1 PHE C   7       8.700  26.005   5.118  1.00  0.00    -0.082 A 
ATOM    104  HE1 PHE C   7       9.681  25.847   4.466  1.00  0.00     0.083 H 
ATOM    105  CZ  PHE C   7       8.719  27.114   5.975  1.00  0.00    -0.083 A 
ATOM    106  HZ  PHE C   7       9.584  27.924   5.892  1.00  0.00     0.083 H 
ATOM    107  CE2 PHE C   7       7.736  27.253   6.959  1.00  0.00    -0.082 A 
ATOM    108  HE2 PHE C   7       7.857  28.162   7.715  1.00  0.00     0.083 H 
ATOM    109  CD2 PHE C   7       6.666  26.340   7.011  1.00  0.00    -0.077 A 
ATOM    110  HD2 PHE C   7       6.002  26.617   7.957  1.00  0.00     0.084 H 
ATOM    111  N   TYR C   8       4.013  25.333   3.894  1.00  0.00    -0.346 N 
ATOM    112  H   TYR C   8       3.305  25.740   4.754  1.00  0.00     0.163 HD
ATOM    113  CA  TYR C   8       4.109  26.057   2.603  1.00  0.00     0.093 C 
ATOM    114  HA  TYR C   8       3.331  25.333   2.063  1.00  0.00     0.088 H 
ATOM    115  C   TYR C   8       5.568  26.058   2.105  1.00  0.00     0.241 C 
ATOM    116  O   TYR C   8       6.497  26.290   2.886  1.00  0.00    -0.271 OA
ATOM    117  CB  TYR C   8       3.646  27.506   2.763  1.00  0.00    -0.014 C 
ATOM    118  HB2 TYR C   8       3.347  28.056   1.745  1.00  0.00     0.043 H 
ATOM    119  HB3 TYR C   8       4.550  28.162   3.187  1.00  0.00     0.043 H 
ATOM    120  CG  TYR C   8       2.435  27.868   3.582  1.00  0.00    -0.056 A 
ATOM    121  CD1 TYR C   8       1.132  27.513   3.186  1.00  0.00    -0.074 A 
ATOM    122  HD1 TYR C   8       0.726  27.288   2.093  1.00  0.00     0.084 H 
ATOM    123  CE1 TYR C   8       0.060  27.714   4.075  1.00  0.00    -0.051 A 
ATOM    124  HE1 TYR C   8      -1.075  27.525   3.781  1.00  0.00     0.087 H 
ATOM    125  CZ  TYR C   8       0.307  28.273   5.347  1.00  0.00     0.065 A 
ATOM    126  OH  TYR C   8      -0.696  28.366   6.262  1.00  0.00    -0.361 OA
ATOM    127  HH  TYR C   8      -0.774  29.470   6.678  1.00  0.00     0.217 HD
ATOM    128  CE2 TYR C   8       1.589  28.738   5.691  1.00  0.00    -0.051 A 
ATOM    129  HE2 TYR C   8       1.833  29.203   6.756  1.00  0.00     0.087 H 
ATOM    130  CD2 TYR C   8       2.648  28.564   4.785  1.00  0.00    -0.074 A 
ATOM    131  HD2 TYR C   8       3.481  29.373   5.039  1.00  0.00     0.084 H 
ATOM    132  N   LYS C   9       4.546  26.132   0.205  1.00  0.00    -0.345 N 
ATOM    133  H   LYS C   9       3.395  26.232  -0.062  1.00  0.00     0.163 HD
ATOM    134  CA  LYS C   9       5.446  26.214  -0.946  1.00  0.00     0.096 C 
ATOM    135  HA  LYS C   9       6.567  26.094  -0.562  1.00  0.00     0.089 H 
ATOM    136  C   LYS C   9       5.417  27.680  -1.532  1.00  0.00     0.196 C 
ATOM    137  O   LYS C   9       4.546  28.498  -1.140  1.00  0.00    -0.646 OA
ATOM    138  CB  LYS C   9       5.010  25.222  -2.159  1.00  0.00    -0.037 C 
ATOM    139  HB2 LYS C   9       3.840  25.049  -1.997  1.00  0.00     0.036 H 
ATOM    140  HB3 LYS C   9       5.120  25.938  -3.109  1.00  0.00     0.036 H 
ATOM    141  CG  LYS C   9       5.781  23.935  -2.409  1.00  0.00    -0.061 C 
ATOM    142  HG2 LYS C   9       6.937  24.177  -2.596  1.00  0.00     0.033 H 
ATOM    143  HG3 LYS C   9       5.800  23.213  -1.456  1.00  0.00     0.033 H 
ATOM    144  CD  LYS C   9       4.982  23.402  -3.601  1.00  0.00    -0.043 C 
ATOM    145  HD2 LYS C   9       4.614  24.108  -4.494  1.00  0.00     0.035 H 
ATOM    146  HD3 LYS C   9       3.941  22.987  -3.175  1.00  0.00     0.035 H 
ATOM    147  CE  LYS C   9       5.566  22.120  -4.150  1.00  0.00     0.080 C 
ATOM    148  HE2 LYS C   9       4.700  21.387  -4.535  1.00  0.00     0.075 H 
ATOM    149  HE3 LYS C   9       6.176  21.395  -3.419  1.00  0.00     0.075 H 
ATOM    150  NZ  LYS C   9       6.376  22.513  -5.309  1.00  0.00    -0.079 N 
ATOM    151  HZ1 LYS C   9       7.491  22.842  -5.018  1.00  0.00     0.274 HD
ATOM    152  HZ2 LYS C   9       6.037  23.285  -6.162  1.00  0.00     0.274 HD
ATOM    153  HZ3 LYS C   9       6.555  21.528  -5.974  1.00  0.00     0.274 HD
ATOM    154  OXT LYS C   9       6.250  28.031  -2.356  1.00  0.00    -0.646 OA
ENDROOT
TORSDOF 43
