REMARK  0 active torsions:
REMARK  status: ('A' for Active; 'I' for Inactive)
REMARK       I    between atoms: N_1  and  CA_5 
REMARK       I    between atoms: CA_5  and  C_7 
REMARK       I    between atoms: CA_5  and  CB_9 
REMARK       I    between atoms: C_7  and  N_14 
REMARK       I    between atoms: CB_9  and  OG_12 
REMARK       I    between atoms: N_14  and  CA_16 
REMARK       I    between atoms: CA_16  and  CB_20 
REMARK       I    between atoms: CA_16  and  C_18 
REMARK       I    between atoms: C_18  and  N_28 
REMARK       I    between atoms: CB_20  and  CG2_22 
REMARK       I    between atoms: CB_20  and  OG1_26 
REMARK       I    between atoms: N_28  and  CA_30 
REMARK       I    between atoms: CA_30  and  CB_34 
REMARK       I    between atoms: CA_30  and  C_32 
REMARK       I    between atoms: C_32  and  N_48 
REMARK       I    between atoms: CB_34  and  CG_37 
REMARK       I    between atoms: N_48  and  CA_50 
REMARK       I    between atoms: CA_50  and  C_52 
REMARK       I    between atoms: CA_50  and  CB_54 
REMARK       I    between atoms: C_52  and  N_60 
REMARK       I    between atoms: CB_54  and  CG_57 
REMARK       I    between atoms: N_60  and  CA_62 
REMARK       I    between atoms: CA_62  and  CB_66 
REMARK       I    between atoms: CA_62  and  C_64 
REMARK       I    between atoms: C_64  and  N_75 
REMARK       I    between atoms: CB_66  and  CG_69 
REMARK       I    between atoms: CG_69  and  CD_72 
REMARK       I    between atoms: N_75  and  CA_77 
REMARK       I    between atoms: CA_77  and  C_79 
REMARK       I    between atoms: CA_77  and  CB_81 
REMARK       I    between atoms: C_79  and  N_91 
REMARK       I    between atoms: CB_81  and  CG2_87 
REMARK       I    between atoms: CB_81  and  CG1_83 
REMARK       I    between atoms: N_91  and  CA_93 
REMARK       I    between atoms: CA_93  and  CB_97 
REMARK       I    between atoms: CA_93  and  C_95 
REMARK       I    between atoms: C_95  and  N_111 
REMARK       I    between atoms: CB_97  and  CG_100 
REMARK       I    between atoms: N_111  and  CA_113 
REMARK       I    between atoms: CA_113  and  CB_117 
REMARK       I    between atoms: CA_113  and  C_115 
REMARK       I    between atoms: C_115  and  N_132 
REMARK       I    between atoms: CB_117  and  CG_120 
REMARK       I    between atoms: CZ_125  and  OH_126 
REMARK       I    between atoms: N_132  and  CA_134 
REMARK       I    between atoms: CA_134  and  CB_138 
REMARK       I    between atoms: CA_134  and  C_136 
REMARK       I    between atoms: CB_138  and  CG_141 
REMARK       I    between atoms: CG_141  and  CD_144 
REMARK       I    between atoms: CD_144  and  CE_147 
REMARK       I    between atoms: CE_147  and  NZ_150 
ROOT
ATOM      1  N   SER C   1       3.569  10.245  15.174  1.00  0.00    -0.064 N 
ATOM      2  H   SER C   1       4.737   9.983  15.129  1.00  0.00     0.275 HD
ATOM      3  H2  SER C   1       3.156   9.959  14.085  1.00  0.00     0.275 HD
ATOM      4  H3  SER C   1       3.094   9.399  15.878  1.00  0.00     0.275 HD
ATOM      5  CA  SER C   1       3.063  11.615  15.582  1.00  0.00     0.195 C 
ATOM      6  HA  SER C   1       1.874  11.626  15.665  1.00  0.00     0.102 H 
ATOM      7  C   SER C   1       3.501  12.536  14.439  1.00  0.00     0.251 C 
ATOM      8  O   SER C   1       4.647  12.524  13.986  1.00  0.00    -0.271 OA
ATOM      9  CB  SER C   1       3.799  12.126  16.857  1.00  0.00     0.051 C 
ATOM     10  HB2 SER C   1       3.158  13.015  17.339  1.00  0.00     0.077 H 
ATOM     11  HB3 SER C   1       4.907  12.548  16.701  1.00  0.00     0.077 H 
ATOM     12  OG  SER C   1       3.751  11.235  17.954  1.00  0.00    -0.398 OA
ATOM     13  HG  SER C   1       4.799  11.192  18.506  1.00  0.00     0.209 HD
ATOM     14  N   THR C   2       3.011  14.297  14.080  1.00  0.00    -0.344 N 
ATOM     15  H   THR C   2       3.274  14.930  15.047  1.00  0.00     0.163 HD
ATOM     16  CA  THR C   2       2.485  14.749  12.781  1.00  0.00     0.113 C 
ATOM     17  HA  THR C   2       2.912  13.846  12.129  1.00  0.00     0.091 H 
ATOM     18  C   THR C   2       3.114  16.060  12.359  1.00  0.00     0.243 C 
ATOM     19  O   THR C   2       3.564  16.841  13.204  1.00  0.00    -0.271 OA
ATOM     20  CB  THR C   2       0.970  14.955  12.856  1.00  0.00     0.060 C 
ATOM     21  HB  THR C   2       0.720  14.245  11.921  1.00  0.00     0.086 H 
ATOM     22  CG2 THR C   2       0.274  16.187  12.276  1.00  0.00    -0.050 C 
ATOM     23 1HG2 THR C   2       0.211  16.394  11.099  1.00  0.00     0.031 H 
ATOM     24 2HG2 THR C   2       0.466  17.107  13.017  1.00  0.00     0.031 H 
ATOM     25 3HG2 THR C   2      -0.907  16.052  12.464  1.00  0.00     0.031 H 
ATOM     26  OG1 THR C   2       0.171  14.048  13.595  1.00  0.00    -0.393 OA
ATOM     27  HG1 THR C   2      -0.155  14.530  14.627  1.00  0.00     0.210 HD
ATOM     28  N   PHE C   3       3.152  16.316  11.052  1.00  0.00    -0.346 N 
ATOM     29  H   PHE C   3       3.037  15.384  10.323  1.00  0.00     0.163 HD
ATOM     30  CA  PHE C   3       3.716  17.554  10.531  1.00  0.00     0.093 C 
ATOM     31  HA  PHE C   3       4.737  17.715  11.129  1.00  0.00     0.088 H 
ATOM     32  C   PHE C   3       2.776  18.725  10.787  1.00  0.00     0.241 C 
ATOM     33  O   PHE C   3       1.659  18.536  11.280  1.00  0.00    -0.271 OA
ATOM     34  CB  PHE C   3       3.947  17.446   9.022  1.00  0.00    -0.014 C 
ATOM     35  HB2 PHE C   3       3.641  16.441   8.445  1.00  0.00     0.043 H 
ATOM     36  HB3 PHE C   3       5.137  17.335   8.934  1.00  0.00     0.043 H 
ATOM     37  CG  PHE C   3       3.359  18.368   7.965  1.00  0.00    -0.056 A 
ATOM     38  CD1 PHE C   3       1.974  18.588   7.844  1.00  0.00    -0.077 A 
ATOM     39  HD1 PHE C   3       1.166  17.755   8.108  1.00  0.00     0.084 H 
ATOM     40  CE1 PHE C   3       1.456  19.369   6.798  1.00  0.00    -0.082 A 
ATOM     41  HE1 PHE C   3       0.307  19.296   6.500  1.00  0.00     0.083 H 
ATOM     42  CZ  PHE C   3       2.327  19.968   5.877  1.00  0.00    -0.083 A 
ATOM     43  HZ  PHE C   3       1.853  20.332   4.849  1.00  0.00     0.083 H 
ATOM     44  CE2 PHE C   3       3.709  19.762   5.996  1.00  0.00    -0.082 A 
ATOM     45  HE2 PHE C   3       4.271  19.685   4.955  1.00  0.00     0.083 H 
ATOM     46  CD2 PHE C   3       4.223  19.008   7.062  1.00  0.00    -0.077 A 
ATOM     47  HD2 PHE C   3       5.396  18.843   6.966  1.00  0.00     0.084 H 
ATOM     48  N   ASP C   4       3.220  19.937  10.456  1.00  0.00    -0.345 N 
ATOM     49  H   ASP C   4       4.185  19.961   9.768  1.00  0.00     0.163 HD
ATOM     50  CA  ASP C   4       2.400  21.128  10.638  1.00  0.00     0.098 C 
ATOM     51  HA  ASP C   4       1.300  20.895  11.039  1.00  0.00     0.088 H 
ATOM     52  C   ASP C   4       2.153  21.822   9.304  1.00  0.00     0.241 C 
ATOM     53  O   ASP C   4       2.565  21.323   8.252  1.00  0.00    -0.271 OA
ATOM     54  CB  ASP C   4       3.095  22.121  11.573  1.00  0.00     0.043 C 
ATOM     55  HB2 ASP C   4       2.917  21.639  12.659  1.00  0.00     0.052 H 
ATOM     56  HB3 ASP C   4       2.795  23.245  11.852  1.00  0.00     0.052 H 
ATOM     57  CG  ASP C   4       4.636  22.079  11.579  1.00  0.00     0.175 C 
ATOM     58  OD1 ASP C   4       5.173  21.309  10.760  1.00  0.00    -0.648 OA
ATOM     59  OD2 ASP C   4       5.245  22.927  12.268  1.00  0.00    -0.648 OA
ATOM     60  N   GLU C   5       1.482  22.972   9.339  1.00  0.00    -0.346 N 
ATOM     61  H   GLU C   5       0.846  23.314  10.285  1.00  0.00     0.163 HD
ATOM     62  CA  GLU C   5       1.204  23.734   8.128  1.00  0.00     0.090 C 
ATOM     63  HA  GLU C   5       1.464  23.186   7.104  1.00  0.00     0.087 H 
ATOM     64  C   GLU C   5       2.069  24.986   8.068  1.00  0.00     0.241 C 
ATOM     65  O   GLU C   5       1.613  26.043   7.619  1.00  0.00    -0.271 OA
ATOM     66  CB  GLU C   5      -0.264  24.162   8.088  1.00  0.00    -0.029 C 
ATOM     67  HB2 GLU C   5      -0.581  25.227   8.532  1.00  0.00     0.037 H 
ATOM     68  HB3 GLU C   5      -0.961  23.427   8.727  1.00  0.00     0.037 H 
ATOM     69  CG  GLU C   5      -0.944  23.966   6.717  1.00  0.00     0.018 C 
ATOM     70  HG2 GLU C   5      -0.651  24.791   5.905  1.00  0.00     0.049 H 
ATOM     71  HG3 GLU C   5      -0.792  22.916   6.168  1.00  0.00     0.049 H 
ATOM     72  CD  GLU C   5      -2.477  24.032   6.678  1.00  0.00     0.172 C 
ATOM     73  OE1 GLU C   5      -2.996  25.127   6.382  1.00  0.00    -0.648 OA
ATOM     74  OE2 GLU C   5      -3.072  22.942   6.575  1.00  0.00    -0.648 OA
ATOM     75  N   VAL C   6       3.317  24.877   8.519  1.00  0.00    -0.346 N 
ATOM     76  H   VAL C   6       3.901  23.859   8.701  1.00  0.00     0.163 HD
ATOM     77  CA  VAL C   6       4.243  26.005   8.493  1.00  0.00     0.092 C 
ATOM     78  HA  VAL C   6       3.810  27.081   8.221  1.00  0.00     0.088 H 
ATOM     79  C   VAL C   6       5.265  25.838   7.377  1.00  0.00     0.241 C 
ATOM     80  O   VAL C   6       6.322  26.477   7.393  1.00  0.00    -0.271 OA
ATOM     81  CB  VAL C   6       4.996  26.113   9.821  1.00  0.00    -0.033 C 
ATOM     82  HB  VAL C   6       5.439  25.075  10.208  1.00  0.00     0.042 H 
ATOM     83  CG1 VAL C   6       6.269  26.960   9.960  1.00  0.00    -0.071 C 
ATOM     84 1HG1 VAL C   6       6.312  27.993   9.354  1.00  0.00     0.028 H 
ATOM     85 2HG1 VAL C   6       6.533  27.380  11.054  1.00  0.00     0.028 H 
ATOM     86 3HG1 VAL C   6       7.306  26.389   9.756  1.00  0.00     0.028 H 
ATOM     87  CG2 VAL C   6       3.988  26.607  10.843  1.00  0.00    -0.071 C 
ATOM     88 1HG2 VAL C   6       2.890  26.149  10.987  1.00  0.00     0.028 H 
ATOM     89 2HG2 VAL C   6       4.397  26.490  11.966  1.00  0.00     0.028 H 
ATOM     90 3HG2 VAL C   6       3.741  27.780  10.783  1.00  0.00     0.028 H 
ATOM     91  N   PHE C   7       4.955  24.980   6.407  1.00  0.00    -0.346 N 
ATOM     92  H   PHE C   7       3.867  24.680   6.041  1.00  0.00     0.163 HD
ATOM     93  CA  PHE C   7       5.844  24.749   5.275  1.00  0.00     0.093 C 
ATOM     94  HA  PHE C   7       6.847  25.385   5.151  1.00  0.00     0.088 H 
ATOM     95  C   PHE C   7       5.125  25.022   3.960  1.00  0.00     0.241 C 
ATOM     96  O   PHE C   7       5.027  24.138   3.103  1.00  0.00    -0.271 OA
ATOM     97  CB  PHE C   7       6.333  23.299   5.262  1.00  0.00    -0.014 C 
ATOM     98  HB2 PHE C   7       5.552  22.578   5.804  1.00  0.00     0.043 H 
ATOM     99  HB3 PHE C   7       7.254  23.419   6.018  1.00  0.00     0.043 H 
ATOM    100  CG  PHE C   7       6.879  22.210   4.369  1.00  0.00    -0.056 A 
ATOM    101  CD1 PHE C   7       5.986  21.551   3.518  1.00  0.00    -0.077 A 
ATOM    102  HD1 PHE C   7       4.945  21.815   3.012  1.00  0.00     0.084 H 
ATOM    103  CE1 PHE C   7       6.363  20.351   2.904  1.00  0.00    -0.082 A 
ATOM    104  HE1 PHE C   7       5.684  19.642   2.235  1.00  0.00     0.083 H 
ATOM    105  CZ  PHE C   7       7.704  19.944   2.978  1.00  0.00    -0.083 A 
ATOM    106  HZ  PHE C   7       8.095  19.011   2.354  1.00  0.00     0.083 H 
ATOM    107  CE2 PHE C   7       8.612  20.614   3.815  1.00  0.00    -0.082 A 
ATOM    108  HE2 PHE C   7       9.684  20.129   3.976  1.00  0.00     0.083 H 
ATOM    109  CD2 PHE C   7       8.233  21.816   4.428  1.00  0.00    -0.077 A 
ATOM    110  HD2 PHE C   7       9.195  22.484   4.631  1.00  0.00     0.084 H 
ATOM    111  N   TYR C   8       4.620  26.244   3.793  1.00  0.00    -0.346 N 
ATOM    112  H   TYR C   8       5.210  27.147   4.293  1.00  0.00     0.163 HD
ATOM    113  CA  TYR C   8       3.916  26.633   2.546  1.00  0.00     0.093 C 
ATOM    114  HA  TYR C   8       3.026  25.846   2.448  1.00  0.00     0.088 H 
ATOM    115  C   TYR C   8       4.909  26.665   1.367  1.00  0.00     0.241 C 
ATOM    116  O   TYR C   8       6.025  27.178   1.500  1.00  0.00    -0.271 OA
ATOM    117  CB  TYR C   8       3.288  28.020   2.694  1.00  0.00    -0.014 C 
ATOM    118  HB2 TYR C   8       2.431  28.165   1.870  1.00  0.00     0.043 H 
ATOM    119  HB3 TYR C   8       4.048  28.887   2.376  1.00  0.00     0.043 H 
ATOM    120  CG  TYR C   8       2.584  28.451   3.950  1.00  0.00    -0.056 A 
ATOM    121  CD1 TYR C   8       1.358  27.888   4.338  1.00  0.00    -0.074 A 
ATOM    122  HD1 TYR C   8       0.550  27.428   3.597  1.00  0.00     0.084 H 
ATOM    123  CE1 TYR C   8       0.833  28.214   5.600  1.00  0.00    -0.051 A 
ATOM    124  HE1 TYR C   8      -0.345  28.244   5.750  1.00  0.00     0.087 H 
ATOM    125  CZ  TYR C   8       1.550  29.081   6.447  1.00  0.00     0.065 A 
ATOM    126  OH  TYR C   8       1.124  29.301   7.731  1.00  0.00    -0.361 OA
ATOM    127  HH  TYR C   8       1.324  30.425   8.045  1.00  0.00     0.217 HD
ATOM    128  CE2 TYR C   8       2.711  29.735   6.002  1.00  0.00    -0.051 A 
ATOM    129  HE2 TYR C   8       3.279  30.611   6.570  1.00  0.00     0.087 H 
ATOM    130  CD2 TYR C   8       3.207  29.440   4.726  1.00  0.00    -0.074 A 
ATOM    131  HD2 TYR C   8       3.877  30.334   4.320  1.00  0.00     0.084 H 
ATOM    132  N   LYS C   9       4.546  26.132   0.205  1.00  0.00    -0.345 N 
ATOM    133  H   LYS C   9       3.478  25.626   0.088  1.00  0.00     0.163 HD
ATOM    134  CA  LYS C   9       5.446  26.214  -0.946  1.00  0.00     0.096 C 
ATOM    135  HA  LYS C   9       6.592  26.035  -0.676  1.00  0.00     0.089 H 
ATOM    136  C   LYS C   9       5.417  27.680  -1.532  1.00  0.00     0.196 C 
ATOM    137  O   LYS C   9       4.546  28.498  -1.140  1.00  0.00    -0.646 OA
ATOM    138  CB  LYS C   9       5.010  25.222  -2.159  1.00  0.00    -0.037 C 
ATOM    139  HB2 LYS C   9       5.243  25.911  -3.108  1.00  0.00     0.036 H 
ATOM    140  HB3 LYS C   9       3.818  25.157  -2.119  1.00  0.00     0.036 H 
ATOM    141  CG  LYS C   9       5.777  23.930  -2.410  1.00  0.00    -0.061 C 
ATOM    142  HG2 LYS C   9       5.713  23.232  -1.442  1.00  0.00     0.033 H 
ATOM    143  HG3 LYS C   9       6.946  24.099  -2.589  1.00  0.00     0.033 H 
ATOM    144  CD  LYS C   9       4.972  23.414  -3.599  1.00  0.00    -0.043 C 
ATOM    145  HD2 LYS C   9       4.639  24.128  -4.499  1.00  0.00     0.035 H 
ATOM    146  HD3 LYS C   9       3.917  23.007  -3.200  1.00  0.00     0.035 H 
ATOM    147  CE  LYS C   9       5.562  22.131  -4.140  1.00  0.00     0.080 C 
ATOM    148  HE2 LYS C   9       4.734  21.351  -4.521  1.00  0.00     0.075 H 
ATOM    149  HE3 LYS C   9       6.176  21.441  -3.377  1.00  0.00     0.075 H 
ATOM    150  NZ  LYS C   9       6.372  22.525  -5.303  1.00  0.00    -0.079 N 
ATOM    151  HZ1 LYS C   9       7.239  23.352  -5.264  1.00  0.00     0.274 HD
ATOM    152  HZ2 LYS C   9       5.753  22.780  -6.299  1.00  0.00     0.274 HD
ATOM    153  HZ3 LYS C   9       7.002  21.557  -5.634  1.00  0.00     0.274 HD
ATOM    154  OXT LYS C   9       6.276  28.003  -2.385  1.00  0.00    -0.646 OA
ENDROOT
TORSDOF 43
