REMARK  0 active torsions:
REMARK  status: ('A' for Active; 'I' for Inactive)
REMARK       I    between atoms: N_1  and  CA_5 
REMARK       I    between atoms: CA_5  and  C_7 
REMARK       I    between atoms: CA_5  and  CB_9 
REMARK       I    between atoms: C_7  and  N_14 
REMARK       I    between atoms: CB_9  and  OG_12 
REMARK       I    between atoms: N_14  and  CA_16 
REMARK       I    between atoms: CA_16  and  CB_20 
REMARK       I    between atoms: CA_16  and  C_18 
REMARK       I    between atoms: C_18  and  N_28 
REMARK       I    between atoms: CB_20  and  OG1_26 
REMARK       I    between atoms: CB_20  and  CG2_22 
REMARK       I    between atoms: N_28  and  CA_30 
REMARK       I    between atoms: CA_30  and  CB_34 
REMARK       I    between atoms: CA_30  and  C_32 
REMARK       I    between atoms: C_32  and  N_48 
REMARK       I    between atoms: CB_34  and  CG_37 
REMARK       I    between atoms: N_48  and  CA_50 
REMARK       I    between atoms: CA_50  and  CB_54 
REMARK       I    between atoms: CA_50  and  C_52 
REMARK       I    between atoms: C_52  and  N_60 
REMARK       I    between atoms: CB_54  and  CG_57 
REMARK       I    between atoms: N_60  and  CA_62 
REMARK       I    between atoms: CA_62  and  CB_66 
REMARK       I    between atoms: CA_62  and  C_64 
REMARK       I    between atoms: C_64  and  N_75 
REMARK       I    between atoms: CB_66  and  CG_69 
REMARK       I    between atoms: CG_69  and  CD_72 
REMARK       I    between atoms: N_75  and  CA_77 
REMARK       I    between atoms: CA_77  and  CB_81 
REMARK       I    between atoms: CA_77  and  C_79 
REMARK       I    between atoms: C_79  and  N_91 
REMARK       I    between atoms: CB_81  and  CG1_83 
REMARK       I    between atoms: CB_81  and  CG2_87 
REMARK       I    between atoms: N_91  and  CA_93 
REMARK       I    between atoms: CA_93  and  CB_97 
REMARK       I    between atoms: CA_93  and  C_95 
REMARK       I    between atoms: C_95  and  N_111 
REMARK       I    between atoms: CB_97  and  CG_100 
REMARK       I    between atoms: N_111  and  CA_113 
REMARK       I    between atoms: CA_113  and  CB_117 
REMARK       I    between atoms: CA_113  and  C_115 
REMARK       I    between atoms: N_132  and  CA_113 
REMARK       I    between atoms: CB_117  and  CG_120 
REMARK       I    between atoms: CZ_125  and  OH_126 
REMARK       I    between atoms: N_132  and  CA_134 
REMARK       I    between atoms: CA_134  and  CB_138 
REMARK       I    between atoms: CA_134  and  C_136 
REMARK       I    between atoms: CB_138  and  CG_141 
REMARK       I    between atoms: CG_141  and  CD_144 
REMARK       I    between atoms: CD_144  and  CE_147 
REMARK       I    between atoms: CE_147  and  NZ_150 
ROOT
ATOM      1  N   SER C   1       3.569  10.245  15.174  1.00  0.00    -0.064 N 
ATOM      2  H   SER C   1       3.684  10.041  13.996  1.00  0.00     0.275 HD
ATOM      3  H2  SER C   1       4.595   9.825  15.630  1.00  0.00     0.275 HD
ATOM      4  H3  SER C   1       2.760   9.412  15.480  1.00  0.00     0.275 HD
ATOM      5  CA  SER C   1       3.063  11.615  15.582  1.00  0.00     0.195 C 
ATOM      6  HA  SER C   1       1.897  11.512  15.810  1.00  0.00     0.102 H 
ATOM      7  C   SER C   1       3.501  12.536  14.439  1.00  0.00     0.251 C 
ATOM      8  O   SER C   1       4.647  12.524  13.986  1.00  0.00    -0.271 OA
ATOM      9  CB  SER C   1       3.799  12.126  16.857  1.00  0.00     0.051 C 
ATOM     10  HB2 SER C   1       3.247  13.107  17.258  1.00  0.00     0.077 H 
ATOM     11  HB3 SER C   1       4.962  12.367  16.735  1.00  0.00     0.077 H 
ATOM     12  OG  SER C   1       3.751  11.234  17.956  1.00  0.00    -0.398 OA
ATOM     13  HG  SER C   1       4.179  11.744  18.935  1.00  0.00     0.209 HD
ATOM     14  N   THR C   2       2.645  13.462  14.123  1.00  0.00    -0.344 N 
ATOM     15  H   THR C   2       1.818  13.841  14.888  1.00  0.00     0.163 HD
ATOM     16  CA  THR C   2       2.846  14.378  12.987  1.00  0.00     0.113 C 
ATOM     17  HA  THR C   2       3.274  13.624  12.167  1.00  0.00     0.091 H 
ATOM     18  C   THR C   2       3.766  15.521  13.358  1.00  0.00     0.243 C 
ATOM     19  O   THR C   2       3.873  15.884  14.534  1.00  0.00    -0.271 OA
ATOM     20  CB  THR C   2       1.511  14.974  12.535  1.00  0.00     0.060 C 
ATOM     21  HB  THR C   2       1.593  14.697  11.371  1.00  0.00     0.086 H 
ATOM     22  CG2 THR C   2       1.349  16.470  12.239  1.00  0.00    -0.050 C 
ATOM     23 1HG2 THR C   2       1.409  17.118  13.243  1.00  0.00     0.031 H 
ATOM     24 2HG2 THR C   2       0.204  16.656  11.928  1.00  0.00     0.031 H 
ATOM     25 3HG2 THR C   2       1.870  17.055  11.335  1.00  0.00     0.031 H 
ATOM     26  OG1 THR C   2       0.347  14.160  12.515  1.00  0.00    -0.393 OA
ATOM     27  HG1 THR C   2      -0.410  14.495  13.363  1.00  0.00     0.210 HD
ATOM     28  N   PHE C   3       4.439  16.099  12.364  1.00  0.00    -0.346 N 
ATOM     29  H   PHE C   3       4.551  15.547  11.317  1.00  0.00     0.163 HD
ATOM     30  CA  PHE C   3       5.339  17.221  12.598  1.00  0.00     0.093 C 
ATOM     31  HA  PHE C   3       4.767  17.850  13.436  1.00  0.00     0.088 H 
ATOM     32  C   PHE C   3       5.440  18.099  11.358  1.00  0.00     0.241 C 
ATOM     33  O   PHE C   3       5.467  17.593  10.231  1.00  0.00    -0.271 OA
ATOM     34  CB  PHE C   3       6.742  16.720  12.948  1.00  0.00    -0.014 C 
ATOM     35  HB2 PHE C   3       6.823  16.952  14.117  1.00  0.00     0.043 H 
ATOM     36  HB3 PHE C   3       6.842  15.527  12.927  1.00  0.00     0.043 H 
ATOM     37  CG  PHE C   3       8.116  17.017  12.385  1.00  0.00    -0.056 A 
ATOM     38  CD1 PHE C   3       8.439  16.715  11.050  1.00  0.00    -0.077 A 
ATOM     39  HD1 PHE C   3       7.904  15.800  10.510  1.00  0.00     0.084 H 
ATOM     40  CE1 PHE C   3       9.766  16.814  10.612  1.00  0.00    -0.082 A 
ATOM     41  HE1 PHE C   3      10.276  15.932   9.994  1.00  0.00     0.083 H 
ATOM     42  CZ  PHE C   3      10.757  17.325  11.466  1.00  0.00    -0.083 A 
ATOM     43  HZ  PHE C   3      11.868  17.524  11.098  1.00  0.00     0.083 H 
ATOM     44  CE2 PHE C   3      10.437  17.637  12.797  1.00  0.00    -0.082 A 
ATOM     45  HE2 PHE C   3      11.337  17.859  13.540  1.00  0.00     0.083 H 
ATOM     46  CD2 PHE C   3       9.113  17.546  13.228  1.00  0.00    -0.077 A 
ATOM     47  HD2 PHE C   3       9.020  18.014  14.316  1.00  0.00     0.084 H 
ATOM     48  N   ASP C   4       5.498  19.415  11.556  1.00  0.00    -0.345 N 
ATOM     49  H   ASP C   4       6.107  19.360  12.577  1.00  0.00     0.163 HD
ATOM     50  CA  ASP C   4       5.616  20.352  10.446  1.00  0.00     0.098 C 
ATOM     51  HA  ASP C   4       4.577  20.236   9.871  1.00  0.00     0.088 H 
ATOM     52  C   ASP C   4       6.954  20.182   9.736  1.00  0.00     0.241 C 
ATOM     53  O   ASP C   4       8.011  20.436  10.322  1.00  0.00    -0.271 OA
ATOM     54  CB  ASP C   4       5.519  21.795  10.947  1.00  0.00     0.043 C 
ATOM     55  HB2 ASP C   4       6.201  22.595  10.380  1.00  0.00     0.052 H 
ATOM     56  HB3 ASP C   4       4.407  22.231  10.875  1.00  0.00     0.052 H 
ATOM     57  CG  ASP C   4       5.795  22.035  12.432  1.00  0.00     0.175 C 
ATOM     58  OD1 ASP C   4       6.143  21.072  13.154  1.00  0.00    -0.648 OA
ATOM     59  OD2 ASP C   4       5.710  23.239  12.806  1.00  0.00    -0.648 OA
ATOM     60  N   GLU C   5       6.915  19.752   8.476  1.00  0.00    -0.346 N 
ATOM     61  H   GLU C   5       5.827  19.478   8.088  1.00  0.00     0.163 HD
ATOM     62  CA  GLU C   5       8.131  19.571   7.692  1.00  0.00     0.090 C 
ATOM     63  HA  GLU C   5       9.073  20.140   8.152  1.00  0.00     0.087 H 
ATOM     64  C   GLU C   5       8.038  20.325   6.371  1.00  0.00     0.241 C 
ATOM     65  O   GLU C   5       8.947  21.082   6.016  1.00  0.00    -0.271 OA
ATOM     66  CB  GLU C   5       8.355  18.089   7.383  1.00  0.00    -0.029 C 
ATOM     67  HB2 GLU C   5       7.406  17.423   7.663  1.00  0.00     0.037 H 
ATOM     68  HB3 GLU C   5       9.287  17.924   8.110  1.00  0.00     0.037 H 
ATOM     69  CG  GLU C   5       8.889  17.317   6.165  1.00  0.00     0.018 C 
ATOM     70  HG2 GLU C   5       9.717  17.923   5.556  1.00  0.00     0.049 H 
ATOM     71  HG3 GLU C   5       8.101  16.710   5.506  1.00  0.00     0.049 H 
ATOM     72  CD  GLU C   5       9.669  16.051   6.597  1.00  0.00     0.172 C 
ATOM     73  OE1 GLU C   5      10.861  16.009   6.217  1.00  0.00    -0.648 OA
ATOM     74  OE2 GLU C   5       9.086  15.077   7.142  1.00  0.00    -0.648 OA
ATOM     75  N   VAL C   6       6.944  20.123   5.639  1.00  0.00    -0.346 N 
ATOM     76  H   VAL C   6       5.993  19.471   5.921  1.00  0.00     0.163 HD
ATOM     77  CA  VAL C   6       6.736  20.805   4.366  1.00  0.00     0.092 C 
ATOM     78  HA  VAL C   6       7.759  21.251   3.945  1.00  0.00     0.088 H 
ATOM     79  C   VAL C   6       5.585  21.798   4.468  1.00  0.00     0.241 C 
ATOM     80  O   VAL C   6       4.483  21.438   4.893  1.00  0.00    -0.271 OA
ATOM     81  CB  VAL C   6       6.404  19.798   3.264  1.00  0.00    -0.033 C 
ATOM     82  HB  VAL C   6       5.403  19.319   3.711  1.00  0.00     0.042 H 
ATOM     83  CG1 VAL C   6       5.561  20.233   2.060  1.00  0.00    -0.071 C 
ATOM     84 1HG1 VAL C   6       6.275  20.990   1.458  1.00  0.00     0.028 H 
ATOM     85 2HG1 VAL C   6       4.465  20.714   2.091  1.00  0.00     0.028 H 
ATOM     86 3HG1 VAL C   6       5.373  19.397   1.216  1.00  0.00     0.028 H 
ATOM     87  CG2 VAL C   6       7.056  18.415   3.201  1.00  0.00    -0.071 C 
ATOM     88 1HG2 VAL C   6       7.330  18.188   2.051  1.00  0.00     0.028 H 
ATOM     89 2HG2 VAL C   6       8.194  18.425   3.578  1.00  0.00     0.028 H 
ATOM     90 3HG2 VAL C   6       6.464  17.405   3.460  1.00  0.00     0.028 H 
ATOM     91  N   PHE C   7       5.838  23.047   4.079  1.00  0.00    -0.346 N 
ATOM     92  H   PHE C   7       6.929  23.444   3.824  1.00  0.00     0.163 HD
ATOM     93  CA  PHE C   7       4.812  24.081   4.111  1.00  0.00     0.093 C 
ATOM     94  HA  PHE C   7       3.738  23.563   4.073  1.00  0.00     0.088 H 
ATOM     95  C   PHE C   7       4.837  24.906   2.831  1.00  0.00     0.242 C 
ATOM     96  O   PHE C   7       5.516  24.544   1.864  1.00  0.00    -0.271 OA
ATOM     97  CB  PHE C   7       5.036  25.025   5.295  1.00  0.00    -0.017 C 
ATOM     98  HB2 PHE C   7       5.986  24.803   5.986  1.00  0.00     0.043 H 
ATOM     99  HB3 PHE C   7       4.136  24.772   6.042  1.00  0.00     0.043 H 
ATOM    100  CG  PHE C   7       5.178  26.543   5.151  1.00  0.00    -0.069 A 
ATOM    101  CD1 PHE C   7       6.136  27.126   4.306  1.00  0.00    -0.005 A 
ATOM    102  HD1 PHE C   7       7.233  26.669   4.390  1.00  0.00     0.054 H 
ATOM    103  CE1 PHE C   7       6.275  28.525   4.190  1.00  0.00    -0.094 A 
ATOM    104  HE1 PHE C   7       7.299  29.064   3.914  1.00  0.00     0.077 H 
ATOM    105  CZ  PHE C   7       5.455  29.374   4.940  1.00  0.00    -0.086 A 
ATOM    106  HZ  PHE C   7       5.656  30.546   4.972  1.00  0.00     0.083 H 
ATOM    107  CE2 PHE C   7       4.537  28.812   5.827  1.00  0.00    -0.083 A 
ATOM    108  HE2 PHE C   7       4.246  29.501   6.751  1.00  0.00     0.083 H 
ATOM    109  CD2 PHE C   7       4.356  27.415   5.886  1.00  0.00    -0.080 A 
ATOM    110  HD2 PHE C   7       3.773  27.111   6.876  1.00  0.00     0.083 H 
ATOM    111  N   TYR C   8       4.102  26.017   2.817  1.00  0.00    -0.335 N 
ATOM    112  H   TYR C   8       3.071  25.833   3.382  1.00  0.00     0.164 HD
ATOM    113  CA  TYR C   8       4.063  26.911   1.633  1.00  0.00     0.107 C 
ATOM    114  HA  TYR C   8       3.014  26.517   1.218  1.00  0.00     0.113 H 
ATOM    115  C   TYR C   8       5.496  27.301   1.219  1.00  0.00     0.236 C 
ATOM    116  O   TYR C   8       6.330  27.623   2.071  1.00  0.00    -0.285 OA
ATOM    117  CB  TYR C   8       3.282  28.188   1.950  1.00  0.00    -0.005 C 
ATOM    118  HB2 TYR C   8       3.964  29.083   2.349  1.00  0.00     0.045 H 
ATOM    119  HB3 TYR C   8       2.887  28.740   0.960  1.00  0.00     0.045 H 
ATOM    120  CG  TYR C   8       1.988  28.165   2.720  1.00  0.00    -0.067 A 
ATOM    121  CD1 TYR C   8       0.810  27.578   2.218  1.00  0.00    -0.077 A 
ATOM    122  HD1 TYR C   8       0.444  27.486   1.091  1.00  0.00     0.084 H 
ATOM    123  CE1 TYR C   8      -0.296  27.417   3.076  1.00  0.00    -0.051 A 
ATOM    124  HE1 TYR C   8      -1.360  27.040   2.705  1.00  0.00     0.087 H 
ATOM    125  CZ  TYR C   8      -0.216  27.844   4.417  1.00  0.00     0.062 A 
ATOM    126  OH  TYR C   8      -1.223  27.591   5.288  1.00  0.00    -0.361 OA
ATOM    127  HH  TYR C   8      -0.822  27.531   6.397  1.00  0.00     0.217 HD
ATOM    128  CE2 TYR C   8       0.918  28.536   4.882  1.00  0.00    -0.062 A 
ATOM    129  HE2 TYR C   8       0.903  29.166   5.890  1.00  0.00     0.082 H 
ATOM    130  CD2 TYR C   8       1.992  28.741   4.000  1.00  0.00    -0.003 A 
ATOM    131  HD2 TYR C   8       2.158  29.921   3.984  1.00  0.00     0.054 H 
ATOM    132  N   LYS C   9       4.546  26.132   0.205  1.00  0.00    -0.385 N 
ATOM    133  H   LYS C   9       3.932  25.122   0.067  1.00  0.00     0.156 HD
ATOM    134  CA  LYS C   9       5.446  26.214  -0.946  1.00  0.00     0.091 C 
ATOM    135  HA  LYS C   9       6.603  26.057  -0.706  1.00  0.00     0.089 H 
ATOM    136  C   LYS C   9       5.417  27.680  -1.532  1.00  0.00     0.196 C 
ATOM    137  O   LYS C   9       4.546  28.498  -1.140  1.00  0.00    -0.646 OA
ATOM    138  CB  LYS C   9       5.010  25.222  -2.159  1.00  0.00    -0.037 C 
ATOM    139  HB2 LYS C   9       3.818  25.274  -2.228  1.00  0.00     0.036 H 
ATOM    140  HB3 LYS C   9       5.369  25.865  -3.103  1.00  0.00     0.036 H 
ATOM    141  CG  LYS C   9       5.783  23.923  -2.415  1.00  0.00    -0.061 C 
ATOM    142  HG2 LYS C   9       5.697  23.206  -1.468  1.00  0.00     0.033 H 
ATOM    143  HG3 LYS C   9       6.950  24.073  -2.603  1.00  0.00     0.033 H 
ATOM    144  CD  LYS C   9       4.971  23.415  -3.602  1.00  0.00    -0.043 C 
ATOM    145  HD2 LYS C   9       4.568  24.092  -4.500  1.00  0.00     0.035 H 
ATOM    146  HD3 LYS C   9       3.948  22.985  -3.152  1.00  0.00     0.035 H 
ATOM    147  CE  LYS C   9       5.566  22.130  -4.146  1.00  0.00     0.080 C 
ATOM    148  HE2 LYS C   9       4.737  21.365  -4.561  1.00  0.00     0.075 H 
ATOM    149  HE3 LYS C   9       6.166  21.433  -3.382  1.00  0.00     0.075 H 
ATOM    150  NZ  LYS C   9       6.368  22.526  -5.299  1.00  0.00    -0.079 N 
ATOM    151  HZ1 LYS C   9       7.101  21.615  -5.564  1.00  0.00     0.274 HD
ATOM    152  HZ2 LYS C   9       7.142  23.436  -5.341  1.00  0.00     0.274 HD
ATOM    153  HZ3 LYS C   9       5.751  22.652  -6.318  1.00  0.00     0.274 HD
ATOM    154  OXT LYS C   9       6.299  27.977  -2.415  1.00  0.00    -0.646 OA
ENDROOT
TORSDOF 44
