REMARK  0 active torsions:
REMARK  status: ('A' for Active; 'I' for Inactive)
REMARK       I    between atoms: N_1  and  CA_5 
REMARK       I    between atoms: CA_5  and  C_7 
REMARK       I    between atoms: CA_5  and  CB_9 
REMARK       I    between atoms: C_7  and  N_14 
REMARK       I    between atoms: CB_9  and  OG_12 
REMARK       I    between atoms: N_14  and  CA_16 
REMARK       I    between atoms: CA_16  and  CB_20 
REMARK       I    between atoms: CA_16  and  C_18 
REMARK       I    between atoms: C_18  and  N_28 
REMARK       I    between atoms: CB_20  and  OG1_26 
REMARK       I    between atoms: CB_20  and  CG2_22 
REMARK       I    between atoms: N_28  and  CA_30 
REMARK       I    between atoms: CA_30  and  CB_34 
REMARK       I    between atoms: CA_30  and  C_32 
REMARK       I    between atoms: C_32  and  N_48 
REMARK       I    between atoms: CB_34  and  CG_37 
REMARK       I    between atoms: N_48  and  CA_50 
REMARK       I    between atoms: CA_50  and  CB_54 
REMARK       I    between atoms: CA_50  and  C_52 
REMARK       I    between atoms: C_52  and  N_60 
REMARK       I    between atoms: CB_54  and  CG_57 
REMARK       I    between atoms: N_60  and  CA_62 
REMARK       I    between atoms: CA_62  and  C_64 
REMARK       I    between atoms: CA_62  and  CB_66 
REMARK       I    between atoms: C_64  and  N_75 
REMARK       I    between atoms: CB_66  and  CG_69 
REMARK       I    between atoms: CG_69  and  CD_72 
REMARK       I    between atoms: N_75  and  CA_77 
REMARK       I    between atoms: CA_77  and  C_79 
REMARK       I    between atoms: CA_77  and  CB_81 
REMARK       I    between atoms: C_79  and  N_91 
REMARK       I    between atoms: CB_81  and  CG1_83 
REMARK       I    between atoms: CB_81  and  CG2_87 
REMARK       I    between atoms: N_91  and  CA_93 
REMARK       I    between atoms: CA_93  and  CB_97 
REMARK       I    between atoms: CA_93  and  C_95 
REMARK       I    between atoms: C_95  and  N_111 
REMARK       I    between atoms: CB_97  and  CG_100 
REMARK       I    between atoms: N_111  and  CA_113 
REMARK       I    between atoms: CA_113  and  C_115 
REMARK       I    between atoms: CA_113  and  CB_117 
REMARK       I    between atoms: CB_117  and  CG_120 
REMARK       I    between atoms: CZ_125  and  OH_126 
REMARK       I    between atoms: N_132  and  CA_134 
REMARK       I    between atoms: CA_134  and  CB_138 
REMARK       I    between atoms: CA_134  and  C_136 
REMARK       I    between atoms: CB_138  and  CG_141 
REMARK       I    between atoms: CG_141  and  CD_144 
REMARK       I    between atoms: CD_144  and  CE_147 
REMARK       I    between atoms: CE_147  and  NZ_150 
ROOT
ATOM      1  N   SER C   1       3.569  10.245  15.174  1.00  0.00    -0.064 N 
ATOM      2  H   SER C   1       4.717  10.063  14.885  1.00  0.00     0.275 HD
ATOM      3  H2  SER C   1       2.952   9.867  14.217  1.00  0.00     0.275 HD
ATOM      4  H3  SER C   1       3.356   9.380  15.977  1.00  0.00     0.275 HD
ATOM      5  CA  SER C   1       3.063  11.615  15.582  1.00  0.00     0.195 C 
ATOM      6  HA  SER C   1       1.901  11.466  15.807  1.00  0.00     0.102 H 
ATOM      7  C   SER C   1       3.501  12.536  14.439  1.00  0.00     0.251 C 
ATOM      8  O   SER C   1       4.647  12.524  13.986  1.00  0.00    -0.271 OA
ATOM      9  CB  SER C   1       3.799  12.126  16.857  1.00  0.00     0.051 C 
ATOM     10  HB2 SER C   1       4.887  12.516  16.572  1.00  0.00     0.077 H 
ATOM     11  HB3 SER C   1       3.201  12.937  17.504  1.00  0.00     0.077 H 
ATOM     12  OG  SER C   1       3.746  11.229  17.951  1.00  0.00    -0.398 OA
ATOM     13  HG  SER C   1       4.808  11.135  18.470  1.00  0.00     0.209 HD
ATOM     14  N   THR C   2       2.645  13.462  14.123  1.00  0.00    -0.344 N 
ATOM     15  H   THR C   2       1.760  13.736  14.868  1.00  0.00     0.163 HD
ATOM     16  CA  THR C   2       2.846  14.378  12.987  1.00  0.00     0.113 C 
ATOM     17  HA  THR C   2       3.287  13.629  12.168  1.00  0.00     0.091 H 
ATOM     18  C   THR C   2       3.766  15.521  13.358  1.00  0.00     0.243 C 
ATOM     19  O   THR C   2       3.873  15.884  14.534  1.00  0.00    -0.271 OA
ATOM     20  CB  THR C   2       1.511  14.974  12.535  1.00  0.00     0.060 C 
ATOM     21  HB  THR C   2       1.601  14.711  11.368  1.00  0.00     0.086 H 
ATOM     22  CG2 THR C   2       1.311  16.477  12.355  1.00  0.00    -0.050 C 
ATOM     23 1HG2 THR C   2       0.307  16.624  11.712  1.00  0.00     0.031 H 
ATOM     24 2HG2 THR C   2       2.263  17.139  12.653  1.00  0.00     0.031 H 
ATOM     25 3HG2 THR C   2       0.788  16.776  13.402  1.00  0.00     0.031 H 
ATOM     26  OG1 THR C   2       0.353  14.150  12.530  1.00  0.00    -0.393 OA
ATOM     27  HG1 THR C   2      -0.386  14.457  13.405  1.00  0.00     0.210 HD
ATOM     28  N   PHE C   3       4.439  16.099  12.364  1.00  0.00    -0.346 N 
ATOM     29  H   PHE C   3       4.679  15.497  11.366  1.00  0.00     0.163 HD
ATOM     30  CA  PHE C   3       5.339  17.221  12.598  1.00  0.00     0.088 C 
ATOM     31  HA  PHE C   3       5.211  17.767  13.651  1.00  0.00     0.087 H 
ATOM     32  C   PHE C   3       5.133  18.305  11.549  1.00  0.00     0.221 C 
ATOM     33  O   PHE C   3       6.085  18.990  11.159  1.00  0.00    -0.278 OA
ATOM     34  CB  PHE C   3       6.797  16.762  12.535  1.00  0.00    -0.014 C 
ATOM     35  HB2 PHE C   3       7.084  16.453  11.417  1.00  0.00     0.043 H 
ATOM     36  HB3 PHE C   3       6.893  15.833  13.283  1.00  0.00     0.043 H 
ATOM     37  CG  PHE C   3       8.062  17.490  12.954  1.00  0.00    -0.056 A 
ATOM     38  CD1 PHE C   3       8.070  18.794  13.462  1.00  0.00    -0.077 A 
ATOM     39  HD1 PHE C   3       7.318  19.259  14.256  1.00  0.00     0.084 H 
ATOM     40  CE1 PHE C   3       9.299  19.460  13.639  1.00  0.00    -0.082 A 
ATOM     41  HE1 PHE C   3       9.395  20.600  13.959  1.00  0.00     0.083 H 
ATOM     42  CZ  PHE C   3      10.507  18.777  13.432  1.00  0.00    -0.083 A 
ATOM     43  HZ  PHE C   3      11.550  19.325  13.584  1.00  0.00     0.083 H 
ATOM     44  CE2 PHE C   3      10.504  17.444  13.013  1.00  0.00    -0.082 A 
ATOM     45  HE2 PHE C   3      11.545  16.879  12.919  1.00  0.00     0.083 H 
ATOM     46  CD2 PHE C   3       9.277  16.801  12.789  1.00  0.00    -0.077 A 
ATOM     47  HD2 PHE C   3       9.459  15.646  12.574  1.00  0.00     0.084 H 
ATOM     48  N   ASP C   4       3.894  18.468  11.087  1.00  0.00    -0.247 NA
ATOM     49  H   ASP C   4       3.343  18.871  12.063  1.00  0.00     0.131 HD
ATOM     50  CA  ASP C   4       3.575  19.488  10.095  1.00  0.00     0.085 C 
ATOM     51  HA  ASP C   4       4.477  19.679   9.337  1.00  0.00     0.080 H 
ATOM     52  C   ASP C   4       3.034  20.743  10.768  1.00  0.00     0.236 C 
ATOM     53  O   ASP C   4       1.920  20.739  11.301  1.00  0.00    -0.272 OA
ATOM     54  CB  ASP C   4       2.516  18.974   9.117  1.00  0.00     0.039 C 
ATOM     55  HB2 ASP C   4       1.749  19.794   8.706  1.00  0.00     0.052 H 
ATOM     56  HB3 ASP C   4       3.007  18.509   8.129  1.00  0.00     0.052 H 
ATOM     57  CG  ASP C   4       1.648  17.792   9.527  1.00  0.00     0.174 C 
ATOM     58  OD1 ASP C   4       1.807  17.370  10.686  1.00  0.00    -0.648 OA
ATOM     59  OD2 ASP C   4       0.789  17.426   8.708  1.00  0.00    -0.648 OA
ATOM     60  N   GLU C   5       3.817  21.821  10.746  1.00  0.00    -0.346 N 
ATOM     61  H   GLU C   5       4.984  21.598  10.767  1.00  0.00     0.163 HD
ATOM     62  CA  GLU C   5       3.397  23.084  11.341  1.00  0.00     0.090 C 
ATOM     63  HA  GLU C   5       2.209  23.205  11.337  1.00  0.00     0.087 H 
ATOM     64  C   GLU C   5       3.747  24.253  10.428  1.00  0.00     0.241 C 
ATOM     65  O   GLU C   5       3.095  25.301  10.472  1.00  0.00    -0.271 OA
ATOM     66  CB  GLU C   5       4.091  23.302  12.687  1.00  0.00    -0.029 C 
ATOM     67  HB2 GLU C   5       4.717  22.347  13.036  1.00  0.00     0.037 H 
ATOM     68  HB3 GLU C   5       3.110  23.326  13.374  1.00  0.00     0.037 H 
ATOM     69  CG  GLU C   5       4.903  24.382  13.422  1.00  0.00     0.018 C 
ATOM     70  HG2 GLU C   5       4.525  25.493  13.198  1.00  0.00     0.049 H 
ATOM     71  HG3 GLU C   5       6.091  24.420  13.302  1.00  0.00     0.049 H 
ATOM     72  CD  GLU C   5       4.756  24.192  14.952  1.00  0.00     0.172 C 
ATOM     73  OE1 GLU C   5       4.174  25.118  15.562  1.00  0.00    -0.648 OA
ATOM     74  OE2 GLU C   5       5.322  23.238  15.556  1.00  0.00    -0.648 OA
ATOM     75  N   VAL C   6       4.775  24.080   9.598  1.00  0.00    -0.346 N 
ATOM     76  H   VAL C   6       4.962  23.071   9.002  1.00  0.00     0.163 HD
ATOM     77  CA  VAL C   6       5.189  25.122   8.665  1.00  0.00     0.092 C 
ATOM     78  HA  VAL C   6       4.902  26.122   9.252  1.00  0.00     0.088 H 
ATOM     79  C   VAL C   6       4.419  25.011   7.356  1.00  0.00     0.241 C 
ATOM     80  O   VAL C   6       4.013  23.914   6.958  1.00  0.00    -0.271 OA
ATOM     81  CB  VAL C   6       6.683  25.003   8.355  1.00  0.00    -0.033 C 
ATOM     82  HB  VAL C   6       6.919  26.089   8.807  1.00  0.00     0.042 H 
ATOM     83  CG1 VAL C   6       7.090  25.231   6.914  1.00  0.00    -0.071 C 
ATOM     84 1HG1 VAL C   6       6.598  26.295   6.696  1.00  0.00     0.028 H 
ATOM     85 2HG1 VAL C   6       6.532  24.433   6.208  1.00  0.00     0.028 H 
ATOM     86 3HG1 VAL C   6       8.063  24.533   6.980  1.00  0.00     0.028 H 
ATOM     87  CG2 VAL C   6       7.697  24.399   9.340  1.00  0.00    -0.071 C 
ATOM     88 1HG2 VAL C   6       8.563  23.667   8.945  1.00  0.00     0.028 H 
ATOM     89 2HG2 VAL C   6       7.261  23.658  10.174  1.00  0.00     0.028 H 
ATOM     90 3HG2 VAL C   6       8.351  25.126  10.038  1.00  0.00     0.028 H 
ATOM     91  N   PHE C   7       4.216  26.143   6.684  1.00  0.00    -0.346 N 
ATOM     92  H   PHE C   7       4.249  27.206   7.218  1.00  0.00     0.163 HD
ATOM     93  CA  PHE C   7       3.510  26.161   5.409  1.00  0.00     0.093 C 
ATOM     94  HA  PHE C   7       3.303  25.042   5.052  1.00  0.00     0.088 H 
ATOM     95  C   PHE C   7       4.306  26.930   4.362  1.00  0.00     0.241 C 
ATOM     96  O   PHE C   7       4.859  27.996   4.652  1.00  0.00    -0.271 OA
ATOM     97  CB  PHE C   7       2.144  26.833   5.561  1.00  0.00    -0.014 C 
ATOM     98  HB2 PHE C   7       1.892  27.256   6.653  1.00  0.00     0.043 H 
ATOM     99  HB3 PHE C   7       1.364  25.927   5.488  1.00  0.00     0.043 H 
ATOM    100  CG  PHE C   7       1.453  27.966   4.821  1.00  0.00    -0.056 A 
ATOM    101  CD1 PHE C   7       1.977  29.267   4.804  1.00  0.00    -0.077 A 
ATOM    102  HD1 PHE C   7       2.860  29.749   5.435  1.00  0.00     0.084 H 
ATOM    103  CE1 PHE C   7       1.200  30.330   4.306  1.00  0.00    -0.082 A 
ATOM    104  HE1 PHE C   7       1.489  31.479   4.403  1.00  0.00     0.083 H 
ATOM    105  CZ  PHE C   7      -0.039  30.067   3.706  1.00  0.00    -0.083 A 
ATOM    106  HZ  PHE C   7      -0.636  30.920   3.133  1.00  0.00     0.083 H 
ATOM    107  CE2 PHE C   7      -0.557  28.767   3.698  1.00  0.00    -0.082 A 
ATOM    108  HE2 PHE C   7      -1.723  28.641   3.508  1.00  0.00     0.083 H 
ATOM    109  CD2 PHE C   7       0.225  27.706   4.186  1.00  0.00    -0.077 A 
ATOM    110  HD2 PHE C   7      -0.220  26.685   3.771  1.00  0.00     0.084 H 
ATOM    111  N   TYR C   8       4.369  26.396   3.143  1.00  0.00    -0.349 N 
ATOM    112  H   TYR C   8       3.931  25.316   2.909  1.00  0.00     0.163 HD
ATOM    113  CA  TYR C   8       5.099  27.063   2.036  1.00  0.00     0.082 C 
ATOM    114  HA  TYR C   8       4.810  28.221   1.989  1.00  0.00     0.081 H 
ATOM    115  C   TYR C   8       4.584  26.547   0.678  1.00  0.00     0.374 A 
ATOM    116  O   TYR C   8       4.385  25.341   0.499  1.00  0.00    -0.147 OA
ATOM    117  CB  TYR C   8       6.599  26.776   2.132  1.00  0.00    -0.018 C 
ATOM    118  HB2 TYR C   8       7.183  27.623   1.520  1.00  0.00     0.043 H 
ATOM    119  HB3 TYR C   8       6.941  25.733   1.663  1.00  0.00     0.043 H 
ATOM    120  CG  TYR C   8       7.364  26.801   3.426  1.00  0.00    -0.059 A 
ATOM    121  CD1 TYR C   8       7.592  27.998   4.129  1.00  0.00    -0.075 A 
ATOM    122  HD1 TYR C   8       7.766  29.061   3.624  1.00  0.00     0.084 H 
ATOM    123  CE1 TYR C   8       8.100  27.945   5.438  1.00  0.00    -0.054 A 
ATOM    124  HE1 TYR C   8       8.351  28.986   5.956  1.00  0.00     0.087 H 
ATOM    125  CZ  TYR C   8       8.464  26.697   5.977  1.00  0.00     0.052 A 
ATOM    126  OH  TYR C   8       8.894  26.631   7.272  1.00  0.00    -0.364 OA
ATOM    127  HH  TYR C   8       9.851  27.321   7.423  1.00  0.00     0.217 HD
ATOM    128  CE2 TYR C   8       8.386  25.519   5.203  1.00  0.00     0.021 A 
ATOM    129  HE2 TYR C   8       9.454  24.994   5.122  1.00  0.00     0.058 H 
ATOM    130  CD2 TYR C   8       7.833  25.571   3.916  1.00  0.00    -0.086 A 
ATOM    131  HD2 TYR C   8       8.013  24.546   3.339  1.00  0.00     0.079 H 
ATOM    132  N   LYS C   9       4.546  26.132   0.205  1.00  0.00     0.103 N 
ATOM    133  H   LYS C   9       3.481  26.391  -0.357  1.00  0.00     0.323 HD
ATOM    134  CA  LYS C   9       5.446  26.214  -0.946  1.00  0.00     0.218 C 
ATOM    135  HA  LYS C   9       6.629  26.073  -0.880  1.00  0.00     0.106 H 
ATOM    136  C   LYS C   9       5.417  27.680  -1.532  1.00  0.00     0.208 C 
ATOM    137  O   LYS C   9       4.546  28.498  -1.140  1.00  0.00    -0.646 OA
ATOM    138  CB  LYS C   9       5.010  25.222  -2.159  1.00  0.00    -0.025 C 
ATOM    139  HB2 LYS C   9       5.157  25.909  -3.127  1.00  0.00     0.036 H 
ATOM    140  HB3 LYS C   9       3.831  25.037  -2.108  1.00  0.00     0.036 H 
ATOM    141  CG  LYS C   9       5.787  23.925  -2.419  1.00  0.00    -0.061 C 
ATOM    142  HG2 LYS C   9       6.949  24.108  -2.633  1.00  0.00     0.033 H 
ATOM    143  HG3 LYS C   9       5.755  23.189  -1.478  1.00  0.00     0.033 H 
ATOM    144  CD  LYS C   9       4.976  23.403  -3.604  1.00  0.00    -0.043 C 
ATOM    145  HD2 LYS C   9       4.641  24.097  -4.523  1.00  0.00     0.035 H 
ATOM    146  HD3 LYS C   9       3.937  22.999  -3.162  1.00  0.00     0.035 H 
ATOM    147  CE  LYS C   9       5.566  22.122  -4.147  1.00  0.00     0.080 C 
ATOM    148  HE2 LYS C   9       6.227  21.420  -3.441  1.00  0.00     0.075 H 
ATOM    149  HE3 LYS C   9       4.678  21.396  -4.482  1.00  0.00     0.075 H 
ATOM    150  NZ  LYS C   9       6.375  22.516  -5.308  1.00  0.00    -0.079 N 
ATOM    151  HZ1 LYS C   9       7.264  21.714  -5.404  1.00  0.00     0.274 HD
ATOM    152  HZ2 LYS C   9       5.789  22.373  -6.346  1.00  0.00     0.274 HD
ATOM    153  HZ3 LYS C   9       6.979  23.538  -5.471  1.00  0.00     0.274 HD
ATOM    154  OXT LYS C   9       6.268  28.004  -2.371  1.00  0.00    -0.646 OA
ENDROOT
TORSDOF 43
