REMARK  0 active torsions:
REMARK  status: ('A' for Active; 'I' for Inactive)
REMARK       I    between atoms: N_1  and  CA_5 
REMARK       I    between atoms: CA_5  and  CB_9 
REMARK       I    between atoms: CA_5  and  C_7 
REMARK       I    between atoms: C_7  and  N_14 
REMARK       I    between atoms: CB_9  and  OG_12 
REMARK       I    between atoms: N_14  and  CA_16 
REMARK       I    between atoms: CA_16  and  CB_20 
REMARK       I    between atoms: CA_16  and  C_18 
REMARK       I    between atoms: C_18  and  N_28 
REMARK       I    between atoms: CB_20  and  OG1_26 
REMARK       I    between atoms: CB_20  and  CG2_22 
REMARK       I    between atoms: N_28  and  CA_30 
REMARK       I    between atoms: CA_30  and  CB_34 
REMARK       I    between atoms: CA_30  and  C_32 
REMARK       I    between atoms: C_32  and  N_48 
REMARK       I    between atoms: CB_34  and  CG_37 
REMARK       I    between atoms: N_48  and  CA_50 
REMARK       I    between atoms: CA_50  and  C_52 
REMARK       I    between atoms: CA_50  and  CB_54 
REMARK       I    between atoms: C_52  and  N_60 
REMARK       I    between atoms: CB_54  and  CG_57 
REMARK       I    between atoms: N_60  and  CA_62 
REMARK       I    between atoms: CA_62  and  CB_66 
REMARK       I    between atoms: CA_62  and  C_64 
REMARK       I    between atoms: C_64  and  N_75 
REMARK       I    between atoms: CB_66  and  CG_69 
REMARK       I    between atoms: CG_69  and  CD_72 
REMARK       I    between atoms: N_75  and  CA_77 
REMARK       I    between atoms: CA_77  and  C_79 
REMARK       I    between atoms: CA_77  and  CB_81 
REMARK       I    between atoms: C_79  and  N_91 
REMARK       I    between atoms: CB_81  and  CG2_87 
REMARK       I    between atoms: CB_81  and  CG1_83 
REMARK       I    between atoms: N_91  and  CA_93 
REMARK       I    between atoms: CA_93  and  C_95 
REMARK       I    between atoms: CA_93  and  CB_97 
REMARK       I    between atoms: C_95  and  N_111 
REMARK       I    between atoms: CB_97  and  CG_100 
REMARK       I    between atoms: N_111  and  CA_113 
REMARK       I    between atoms: CA_113  and  CB_117 
REMARK       I    between atoms: CA_113  and  C_115 
REMARK       I    between atoms: N_132  and  C_115 
REMARK       I    between atoms: CB_117  and  CG_120 
REMARK       I    between atoms: CZ_125  and  OH_126 
REMARK       I    between atoms: N_132  and  CA_134 
REMARK       I    between atoms: CA_134  and  CB_138 
REMARK       I    between atoms: CA_134  and  C_136 
REMARK       I    between atoms: CB_138  and  CG_141 
REMARK       I    between atoms: CG_141  and  CD_144 
REMARK       I    between atoms: CD_144  and  CE_147 
REMARK       I    between atoms: CE_147  and  NZ_150 
ROOT
ATOM      1  N   SER C   1       3.569  10.245  15.174  1.00  0.00    -0.064 N 
ATOM      2  H   SER C   1       3.275   9.387  15.957  1.00  0.00     0.275 HD
ATOM      3  H2  SER C   1       2.973   9.915  14.188  1.00  0.00     0.275 HD
ATOM      4  H3  SER C   1       4.717  10.007  14.942  1.00  0.00     0.275 HD
ATOM      5  CA  SER C   1       3.063  11.615  15.582  1.00  0.00     0.195 C 
ATOM      6  HA  SER C   1       1.901  11.488  15.818  1.00  0.00     0.102 H 
ATOM      7  C   SER C   1       3.501  12.536  14.439  1.00  0.00     0.251 C 
ATOM      8  O   SER C   1       4.647  12.524  13.986  1.00  0.00    -0.271 OA
ATOM      9  CB  SER C   1       3.799  12.126  16.857  1.00  0.00     0.051 C 
ATOM     10  HB2 SER C   1       3.292  13.136  17.258  1.00  0.00     0.077 H 
ATOM     11  HB3 SER C   1       4.976  12.298  16.726  1.00  0.00     0.077 H 
ATOM     12  OG  SER C   1       3.752  11.235  17.956  1.00  0.00    -0.398 OA
ATOM     13  HG  SER C   1       3.772  11.829  18.983  1.00  0.00     0.209 HD
ATOM     14  N   THR C   2       2.645  13.462  14.123  1.00  0.00    -0.344 N 
ATOM     15  H   THR C   2       1.744  13.754  14.842  1.00  0.00     0.163 HD
ATOM     16  CA  THR C   2       2.846  14.378  12.987  1.00  0.00     0.113 C 
ATOM     17  HA  THR C   2       3.295  13.627  12.174  1.00  0.00     0.091 H 
ATOM     18  C   THR C   2       3.766  15.521  13.358  1.00  0.00     0.243 C 
ATOM     19  O   THR C   2       3.873  15.884  14.534  1.00  0.00    -0.271 OA
ATOM     20  CB  THR C   2       1.511  14.974  12.535  1.00  0.00     0.060 C 
ATOM     21  HB  THR C   2       1.592  14.664  11.379  1.00  0.00     0.086 H 
ATOM     22  CG2 THR C   2       1.332  16.465  12.241  1.00  0.00    -0.050 C 
ATOM     23 1HG2 THR C   2       1.768  16.911  11.221  1.00  0.00     0.031 H 
ATOM     24 2HG2 THR C   2       0.168  16.674  12.027  1.00  0.00     0.031 H 
ATOM     25 3HG2 THR C   2       1.466  17.124  13.228  1.00  0.00     0.031 H 
ATOM     26  OG1 THR C   2       0.350  14.158  12.516  1.00  0.00    -0.393 OA
ATOM     27  HG1 THR C   2      -0.459  14.574  13.278  1.00  0.00     0.210 HD
ATOM     28  N   PHE C   3       4.439  16.099  12.364  1.00  0.00    -0.346 N 
ATOM     29  H   PHE C   3       4.479  15.594  11.290  1.00  0.00     0.163 HD
ATOM     30  CA  PHE C   3       5.339  17.221  12.598  1.00  0.00     0.088 C 
ATOM     31  HA  PHE C   3       5.722  17.176  13.727  1.00  0.00     0.087 H 
ATOM     32  C   PHE C   3       4.609  18.545  12.413  1.00  0.00     0.221 C 
ATOM     33  O   PHE C   3       3.510  18.583  11.851  1.00  0.00    -0.278 OA
ATOM     34  CB  PHE C   3       6.515  17.180  11.621  1.00  0.00    -0.014 C 
ATOM     35  HB2 PHE C   3       6.516  16.351  10.762  1.00  0.00     0.043 H 
ATOM     36  HB3 PHE C   3       7.392  16.800  12.339  1.00  0.00     0.043 H 
ATOM     37  CG  PHE C   3       6.963  18.255  10.642  1.00  0.00    -0.056 A 
ATOM     38  CD1 PHE C   3       6.101  18.763   9.655  1.00  0.00    -0.077 A 
ATOM     39  HD1 PHE C   3       5.320  18.041   9.129  1.00  0.00     0.084 H 
ATOM     40  CE1 PHE C   3       6.571  19.673   8.693  1.00  0.00    -0.082 A 
ATOM     41  HE1 PHE C   3       6.155  19.720   7.584  1.00  0.00     0.083 H 
ATOM     42  CZ  PHE C   3       7.893  20.137   8.749  1.00  0.00    -0.083 A 
ATOM     43  HZ  PHE C   3       8.373  20.862   7.940  1.00  0.00     0.083 H 
ATOM     44  CE2 PHE C   3       8.762  19.636   9.727  1.00  0.00    -0.082 A 
ATOM     45  HE2 PHE C   3       9.909  19.939   9.684  1.00  0.00     0.083 H 
ATOM     46  CD2 PHE C   3       8.283  18.735  10.691  1.00  0.00    -0.077 A 
ATOM     47  HD2 PHE C   3       9.133  18.373  11.438  1.00  0.00     0.084 H 
ATOM     48  N   ASP C   4       5.214  19.636  12.882  1.00  0.00    -0.247 NA
ATOM     49  H   ASP C   4       5.414  19.490  14.050  1.00  0.00     0.131 HD
ATOM     50  CA  ASP C   4       4.620  20.960  12.744  1.00  0.00     0.085 C 
ATOM     51  HA  ASP C   4       3.658  21.000  13.449  1.00  0.00     0.080 H 
ATOM     52  C   ASP C   4       4.411  21.307  11.276  1.00  0.00     0.236 C 
ATOM     53  O   ASP C   4       5.375  21.400  10.510  1.00  0.00    -0.272 OA
ATOM     54  CB  ASP C   4       5.529  22.024  13.364  1.00  0.00     0.039 C 
ATOM     55  HB2 ASP C   4       5.217  22.274  14.492  1.00  0.00     0.052 H 
ATOM     56  HB3 ASP C   4       5.644  23.093  12.851  1.00  0.00     0.052 H 
ATOM     57  CG  ASP C   4       7.002  21.660  13.577  1.00  0.00     0.174 C 
ATOM     58  OD1 ASP C   4       7.413  20.550  13.193  1.00  0.00    -0.648 OA
ATOM     59  OD2 ASP C   4       7.720  22.573  14.086  1.00  0.00    -0.648 OA
ATOM     60  N   GLU C   5       3.154  21.499  10.877  1.00  0.00    -0.346 N 
ATOM     61  H   GLU C   5       2.304  21.624  11.699  1.00  0.00     0.163 HD
ATOM     62  CA  GLU C   5       2.834  21.854   9.500  1.00  0.00     0.090 C 
ATOM     63  HA  GLU C   5       3.769  21.950   8.771  1.00  0.00     0.087 H 
ATOM     64  C   GLU C   5       2.218  23.246   9.431  1.00  0.00     0.241 C 
ATOM     65  O   GLU C   5       1.089  23.410   8.958  1.00  0.00    -0.271 OA
ATOM     66  CB  GLU C   5       1.837  20.858   8.905  1.00  0.00    -0.029 C 
ATOM     67  HB2 GLU C   5       0.804  20.328   8.596  1.00  0.00     0.037 H 
ATOM     68  HB3 GLU C   5       1.327  20.828   9.991  1.00  0.00     0.037 H 
ATOM     69  CG  GLU C   5       2.126  20.504   7.425  1.00  0.00     0.018 C 
ATOM     70  HG2 GLU C   5       3.250  20.304   7.072  1.00  0.00     0.049 H 
ATOM     71  HG3 GLU C   5       1.721  21.365   6.705  1.00  0.00     0.049 H 
ATOM     72  CD  GLU C   5       1.461  19.261   6.851  1.00  0.00     0.172 C 
ATOM     73  OE1 GLU C   5       0.391  19.421   6.226  1.00  0.00    -0.648 OA
ATOM     74  OE2 GLU C   5       2.182  18.253   6.719  1.00  0.00    -0.648 OA
ATOM     75  N   VAL C   6       2.952  24.253   9.902  1.00  0.00    -0.346 N 
ATOM     76  H   VAL C   6       3.956  24.077  10.509  1.00  0.00     0.163 HD
ATOM     77  CA  VAL C   6       2.473  25.630   9.871  1.00  0.00     0.092 C 
ATOM     78  HA  VAL C   6       1.328  25.773   9.567  1.00  0.00     0.088 H 
ATOM     79  C   VAL C   6       3.136  26.406   8.740  1.00  0.00     0.241 C 
ATOM     80  O   VAL C   6       2.830  27.583   8.523  1.00  0.00    -0.271 OA
ATOM     81  CB  VAL C   6       2.791  26.340  11.189  1.00  0.00    -0.033 C 
ATOM     82  HB  VAL C   6       3.912  26.193  11.572  1.00  0.00     0.042 H 
ATOM     83  CG1 VAL C   6       2.690  27.870  11.278  1.00  0.00    -0.071 C 
ATOM     84 1HG1 VAL C   6       2.029  28.278  12.192  1.00  0.00     0.028 H 
ATOM     85 2HG1 VAL C   6       2.218  28.568  10.427  1.00  0.00     0.028 H 
ATOM     86 3HG1 VAL C   6       3.746  28.390  11.507  1.00  0.00     0.028 H 
ATOM     87  CG2 VAL C   6       1.910  25.734  12.264  1.00  0.00    -0.071 C 
ATOM     88 1HG2 VAL C   6       2.198  26.116  13.366  1.00  0.00     0.028 H 
ATOM     89 2HG2 VAL C   6       0.752  26.022  12.142  1.00  0.00     0.028 H 
ATOM     90 3HG2 VAL C   6       1.837  24.561  12.493  1.00  0.00     0.028 H 
ATOM     91  N   PHE C   7       4.044  25.750   8.019  1.00  0.00    -0.346 N 
ATOM     92  H   PHE C   7       4.663  24.804   8.369  1.00  0.00     0.163 HD
ATOM     93  CA  PHE C   7       4.732  26.380   6.898  1.00  0.00     0.093 C 
ATOM     94  HA  PHE C   7       4.556  27.558   6.958  1.00  0.00     0.088 H 
ATOM     95  C   PHE C   7       4.184  25.867   5.572  1.00  0.00     0.241 C 
ATOM     96  O   PHE C   7       3.827  24.690   5.454  1.00  0.00    -0.271 OA
ATOM     97  CB  PHE C   7       6.231  26.076   6.948  1.00  0.00    -0.014 C 
ATOM     98  HB2 PHE C   7       6.673  27.166   7.189  1.00  0.00     0.043 H 
ATOM     99  HB3 PHE C   7       6.718  25.472   7.860  1.00  0.00     0.043 H 
ATOM    100  CG  PHE C   7       7.179  25.485   5.921  1.00  0.00    -0.056 A 
ATOM    101  CD1 PHE C   7       6.995  24.193   5.402  1.00  0.00    -0.077 A 
ATOM    102  HD1 PHE C   7       6.235  23.338   5.714  1.00  0.00     0.084 H 
ATOM    103  CE1 PHE C   7       7.993  23.600   4.611  1.00  0.00    -0.082 A 
ATOM    104  HE1 PHE C   7       7.929  22.500   4.165  1.00  0.00     0.083 H 
ATOM    105  CZ  PHE C   7       9.127  24.340   4.246  1.00  0.00    -0.083 A 
ATOM    106  HZ  PHE C   7       9.969  23.820   3.589  1.00  0.00     0.083 H 
ATOM    107  CE2 PHE C   7       9.305  25.642   4.741  1.00  0.00    -0.082 A 
ATOM    108  HE2 PHE C   7      10.345  26.153   4.472  1.00  0.00     0.083 H 
ATOM    109  CD2 PHE C   7       8.305  26.231   5.519  1.00  0.00    -0.077 A 
ATOM    110  HD2 PHE C   7       8.652  27.338   5.778  1.00  0.00     0.084 H 
ATOM    111  N   TYR C   8       4.116  26.742   4.571  1.00  0.00    -0.346 N 
ATOM    112  H   TYR C   8       4.678  27.789   4.568  1.00  0.00     0.163 HD
ATOM    113  CA  TYR C   8       3.619  26.353   3.228  1.00  0.00     0.093 C 
ATOM    114  HA  TYR C   8       3.074  25.304   3.157  1.00  0.00     0.088 H 
ATOM    115  C   TYR C   8       4.807  26.053   2.291  1.00  0.00     0.241 C 
ATOM    116  O   TYR C   8       5.793  26.797   2.271  1.00  0.00    -0.271 OA
ATOM    117  CB  TYR C   8       2.786  27.482   2.615  1.00  0.00    -0.014 C 
ATOM    118  HB2 TYR C   8       2.008  27.050   1.817  1.00  0.00     0.043 H 
ATOM    119  HB3 TYR C   8       3.453  28.270   2.016  1.00  0.00     0.043 H 
ATOM    120  CG  TYR C   8       1.799  28.272   3.427  1.00  0.00    -0.056 A 
ATOM    121  CD1 TYR C   8       0.616  27.700   3.923  1.00  0.00    -0.074 A 
ATOM    122  HD1 TYR C   8       0.053  26.722   3.553  1.00  0.00     0.084 H 
ATOM    123  CE1 TYR C   8      -0.174  28.435   4.832  1.00  0.00    -0.051 A 
ATOM    124  HE1 TYR C   8      -1.199  28.016   5.260  1.00  0.00     0.087 H 
ATOM    125  CZ  TYR C   8       0.233  29.726   5.206  1.00  0.00     0.065 A 
ATOM    126  OH  TYR C   8      -0.453  30.408   6.170  1.00  0.00    -0.361 OA
ATOM    127  HH  TYR C   8       0.299  30.867   6.962  1.00  0.00     0.217 HD
ATOM    128  CE2 TYR C   8       1.348  30.343   4.613  1.00  0.00    -0.051 A 
ATOM    129  HE2 TYR C   8       1.619  31.485   4.794  1.00  0.00     0.087 H 
ATOM    130  CD2 TYR C   8       2.118  29.613   3.692  1.00  0.00    -0.074 A 
ATOM    131  HD2 TYR C   8       2.752  30.363   3.024  1.00  0.00     0.084 H 
ATOM    132  N   LYS C   9       4.546  26.132   0.205  1.00  0.00    -0.345 N 
ATOM    133  H   LYS C   9       3.412  25.803   0.144  1.00  0.00     0.163 HD
ATOM    134  CA  LYS C   9       5.446  26.214  -0.946  1.00  0.00     0.096 C 
ATOM    135  HA  LYS C   9       6.554  26.080  -0.532  1.00  0.00     0.089 H 
ATOM    136  C   LYS C   9       5.417  27.680  -1.532  1.00  0.00     0.196 C 
ATOM    137  O   LYS C   9       4.546  28.498  -1.140  1.00  0.00    -0.646 OA
ATOM    138  CB  LYS C   9       5.010  25.222  -2.159  1.00  0.00    -0.037 C 
ATOM    139  HB2 LYS C   9       3.831  25.097  -2.034  1.00  0.00     0.036 H 
ATOM    140  HB3 LYS C   9       5.187  25.934  -3.103  1.00  0.00     0.036 H 
ATOM    141  CG  LYS C   9       5.778  23.924  -2.406  1.00  0.00    -0.061 C 
ATOM    142  HG2 LYS C   9       5.759  23.221  -1.437  1.00  0.00     0.033 H 
ATOM    143  HG3 LYS C   9       6.937  24.111  -2.601  1.00  0.00     0.033 H 
ATOM    144  CD  LYS C   9       4.973  23.417  -3.596  1.00  0.00    -0.043 C 
ATOM    145  HD2 LYS C   9       3.946  22.994  -3.146  1.00  0.00     0.035 H 
ATOM    146  HD3 LYS C   9       4.580  24.131  -4.475  1.00  0.00     0.035 H 
ATOM    147  CE  LYS C   9       5.564  22.131  -4.138  1.00  0.00     0.080 C 
ATOM    148  HE2 LYS C   9       6.203  21.361  -3.474  1.00  0.00     0.075 H 
ATOM    149  HE3 LYS C   9       4.638  21.452  -4.485  1.00  0.00     0.075 H 
ATOM    150  NZ  LYS C   9       6.368  22.527  -5.297  1.00  0.00    -0.079 N 
ATOM    151  HZ1 LYS C   9       6.303  21.620  -6.082  1.00  0.00     0.274 HD
ATOM    152  HZ2 LYS C   9       7.538  22.599  -5.049  1.00  0.00     0.274 HD
ATOM    153  HZ3 LYS C   9       6.194  23.457  -6.033  1.00  0.00     0.274 HD
ATOM    154  OXT LYS C   9       6.319  27.982  -2.399  1.00  0.00    -0.646 OA
ENDROOT
TORSDOF 43
