REMARK  0 active torsions:
REMARK  status: ('A' for Active; 'I' for Inactive)
REMARK       I    between atoms: N_1  and  CA_5 
REMARK       I    between atoms: CA_5  and  CB_9 
REMARK       I    between atoms: CA_5  and  C_7 
REMARK       I    between atoms: C_7  and  N_14 
REMARK       I    between atoms: CB_9  and  OG_12 
REMARK       I    between atoms: N_14  and  CA_16 
REMARK       I    between atoms: CA_16  and  C_18 
REMARK       I    between atoms: CA_16  and  CB_20 
REMARK       I    between atoms: C_18  and  N_28 
REMARK       I    between atoms: CB_20  and  CG2_22 
REMARK       I    between atoms: CB_20  and  OG1_26 
REMARK       I    between atoms: N_28  and  CA_30 
REMARK       I    between atoms: CA_30  and  C_32 
REMARK       I    between atoms: CA_30  and  CB_34 
REMARK       I    between atoms: C_32  and  N_48 
REMARK       I    between atoms: CB_34  and  CG_37 
REMARK       I    between atoms: N_48  and  CA_50 
REMARK       I    between atoms: CA_50  and  CB_54 
REMARK       I    between atoms: CA_50  and  C_52 
REMARK       I    between atoms: C_52  and  N_60 
REMARK       I    between atoms: CB_54  and  CG_57 
REMARK       I    between atoms: N_60  and  CA_62 
REMARK       I    between atoms: CA_62  and  C_64 
REMARK       I    between atoms: CA_62  and  CB_66 
REMARK       I    between atoms: C_64  and  N_75 
REMARK       I    between atoms: CB_66  and  CG_69 
REMARK       I    between atoms: CG_69  and  CD_72 
REMARK       I    between atoms: N_75  and  CA_77 
REMARK       I    between atoms: CA_77  and  C_79 
REMARK       I    between atoms: CA_77  and  CB_81 
REMARK       I    between atoms: C_79  and  N_91 
REMARK       I    between atoms: CB_81  and  CG1_83 
REMARK       I    between atoms: CB_81  and  CG2_87 
REMARK       I    between atoms: N_91  and  CA_93 
REMARK       I    between atoms: CA_93  and  CB_97 
REMARK       I    between atoms: CA_93  and  C_95 
REMARK       I    between atoms: C_95  and  N_111 
REMARK       I    between atoms: CB_97  and  CG_100 
REMARK       I    between atoms: N_111  and  CA_113 
REMARK       I    between atoms: CA_113  and  CB_117 
REMARK       I    between atoms: CA_113  and  C_115 
REMARK       I    between atoms: C_115  and  N_132 
REMARK       I    between atoms: CB_117  and  CG_120 
REMARK       I    between atoms: CZ_125  and  OH_126 
REMARK       I    between atoms: N_132  and  CA_134 
REMARK       I    between atoms: CA_134  and  C_136 
REMARK       I    between atoms: CA_134  and  CB_138 
REMARK       I    between atoms: CB_138  and  CG_141 
REMARK       I    between atoms: CG_141  and  CD_144 
REMARK       I    between atoms: CD_144  and  CE_147 
REMARK       I    between atoms: CE_147  and  NZ_150 
ROOT
ATOM      1  N   SER C   1       3.569  10.245  15.174  1.00  0.00    -0.064 N 
ATOM      2  H   SER C   1       2.971   9.870  14.205  1.00  0.00     0.275 HD
ATOM      3  H2  SER C   1       3.300   9.408  15.989  1.00  0.00     0.275 HD
ATOM      4  H3  SER C   1       4.726  10.055  14.927  1.00  0.00     0.275 HD
ATOM      5  CA  SER C   1       3.063  11.615  15.582  1.00  0.00     0.195 C 
ATOM      6  HA  SER C   1       1.875  11.618  15.682  1.00  0.00     0.102 H 
ATOM      7  C   SER C   1       3.501  12.536  14.439  1.00  0.00     0.251 C 
ATOM      8  O   SER C   1       4.647  12.524  13.986  1.00  0.00    -0.271 OA
ATOM      9  CB  SER C   1       3.799  12.126  16.857  1.00  0.00     0.051 C 
ATOM     10  HB2 SER C   1       3.130  13.044  17.231  1.00  0.00     0.077 H 
ATOM     11  HB3 SER C   1       4.981  12.262  16.764  1.00  0.00     0.077 H 
ATOM     12  OG  SER C   1       3.751  11.234  17.955  1.00  0.00    -0.398 OA
ATOM     13  HG  SER C   1       3.592  11.821  18.973  1.00  0.00     0.209 HD
ATOM     14  N   THR C   2       2.788  13.868  13.657  1.00  0.00    -0.344 N 
ATOM     15  H   THR C   2       1.808  13.437  13.143  1.00  0.00     0.163 HD
ATOM     16  CA  THR C   2       3.277  15.258  13.675  1.00  0.00     0.113 C 
ATOM     17  HA  THR C   2       2.214  15.728  13.951  1.00  0.00     0.091 H 
ATOM     18  C   THR C   2       3.742  15.696  12.303  1.00  0.00     0.243 C 
ATOM     19  O   THR C   2       4.131  14.863  11.477  1.00  0.00    -0.271 OA
ATOM     20  CB  THR C   2       4.456  15.399  14.641  1.00  0.00     0.060 C 
ATOM     21  HB  THR C   2       3.940  16.363  15.135  1.00  0.00     0.086 H 
ATOM     22  CG2 THR C   2       5.721  16.175  14.255  1.00  0.00    -0.050 C 
ATOM     23 1HG2 THR C   2       6.097  16.654  13.224  1.00  0.00     0.031 H 
ATOM     24 2HG2 THR C   2       6.564  15.326  14.355  1.00  0.00     0.031 H 
ATOM     25 3HG2 THR C   2       6.043  17.063  14.996  1.00  0.00     0.031 H 
ATOM     26  OG1 THR C   2       4.441  14.779  15.915  1.00  0.00    -0.393 OA
ATOM     27  HG1 THR C   2       5.234  15.276  16.644  1.00  0.00     0.210 HD
ATOM     28  N   PHE C   3       3.708  17.002  12.046  1.00  0.00    -0.346 N 
ATOM     29  H   PHE C   3       3.044  17.710  12.733  1.00  0.00     0.163 HD
ATOM     30  CA  PHE C   3       4.150  17.542  10.766  1.00  0.00     0.088 C 
ATOM     31  HA  PHE C   3       5.194  17.018  10.523  1.00  0.00     0.087 H 
ATOM     32  C   PHE C   3       4.397  19.042  10.869  1.00  0.00     0.221 C 
ATOM     33  O   PHE C   3       4.076  19.661  11.888  1.00  0.00    -0.278 OA
ATOM     34  CB  PHE C   3       3.091  17.303   9.687  1.00  0.00    -0.014 C 
ATOM     35  HB2 PHE C   3       3.564  16.497   8.942  1.00  0.00     0.043 H 
ATOM     36  HB3 PHE C   3       2.092  16.755  10.054  1.00  0.00     0.043 H 
ATOM     37  CG  PHE C   3       2.412  18.358   8.823  1.00  0.00    -0.056 A 
ATOM     38  CD1 PHE C   3       1.707  19.437   9.385  1.00  0.00    -0.077 A 
ATOM     39  HD1 PHE C   3       1.196  19.381  10.458  1.00  0.00     0.084 H 
ATOM     40  CE1 PHE C   3       1.004  20.339   8.568  1.00  0.00    -0.082 A 
ATOM     41  HE1 PHE C   3      -0.064  20.748   8.896  1.00  0.00     0.083 H 
ATOM     42  CZ  PHE C   3       1.051  20.211   7.170  1.00  0.00    -0.083 A 
ATOM     43  HZ  PHE C   3       0.488  20.969   6.448  1.00  0.00     0.083 H 
ATOM     44  CE2 PHE C   3       1.747  19.139   6.600  1.00  0.00    -0.082 A 
ATOM     45  HE2 PHE C   3       1.660  18.986   5.425  1.00  0.00     0.083 H 
ATOM     46  CD2 PHE C   3       2.456  18.246   7.422  1.00  0.00    -0.077 A 
ATOM     47  HD2 PHE C   3       2.972  17.416   6.745  1.00  0.00     0.084 H 
ATOM     48  N   ASP C   4       4.966  19.631   9.819  1.00  0.00    -0.247 NA
ATOM     49  H   ASP C   4       6.009  19.052   9.779  1.00  0.00     0.131 HD
ATOM     50  CA  ASP C   4       5.233  21.064   9.797  1.00  0.00     0.085 C 
ATOM     51  HA  ASP C   4       5.834  21.314  10.799  1.00  0.00     0.080 H 
ATOM     52  C   ASP C   4       3.948  21.848   9.563  1.00  0.00     0.236 C 
ATOM     53  O   ASP C   4       3.187  21.544   8.639  1.00  0.00    -0.272 OA
ATOM     54  CB  ASP C   4       6.217  21.410   8.677  1.00  0.00     0.039 C 
ATOM     55  HB2 ASP C   4       7.347  21.479   9.068  1.00  0.00     0.052 H 
ATOM     56  HB3 ASP C   4       5.952  22.486   8.249  1.00  0.00     0.052 H 
ATOM     57  CG  ASP C   4       6.344  20.361   7.577  1.00  0.00     0.174 C 
ATOM     58  OD1 ASP C   4       5.628  19.339   7.593  1.00  0.00    -0.648 OA
ATOM     59  OD2 ASP C   4       7.182  20.660   6.687  1.00  0.00    -0.648 OA
ATOM     60  N   GLU C   5       3.700  22.858  10.396  1.00  0.00    -0.346 N 
ATOM     61  H   GLU C   5       4.329  22.976  11.400  1.00  0.00     0.163 HD
ATOM     62  CA  GLU C   5       2.512  23.691  10.257  1.00  0.00     0.090 C 
ATOM     63  HA  GLU C   5       1.621  23.266   9.591  1.00  0.00     0.087 H 
ATOM     64  C   GLU C   5       2.833  24.967   9.489  1.00  0.00     0.241 C 
ATOM     65  O   GLU C   5       1.931  25.737   9.147  1.00  0.00    -0.271 OA
ATOM     66  CB  GLU C   5       1.967  24.083  11.633  1.00  0.00    -0.029 C 
ATOM     67  HB2 GLU C   5       2.250  25.135  12.122  1.00  0.00     0.037 H 
ATOM     68  HB3 GLU C   5       2.298  23.283  12.459  1.00  0.00     0.037 H 
ATOM     69  CG  GLU C   5       0.451  24.048  11.899  1.00  0.00     0.018 C 
ATOM     70  HG2 GLU C   5      -0.134  24.910  11.311  1.00  0.00     0.049 H 
ATOM     71  HG3 GLU C   5      -0.161  23.051  11.657  1.00  0.00     0.049 H 
ATOM     72  CD  GLU C   5       0.061  24.308  13.358  1.00  0.00     0.172 C 
ATOM     73  OE1 GLU C   5      -0.318  25.464  13.664  1.00  0.00    -0.648 OA
ATOM     74  OE2 GLU C   5      -0.132  23.309  14.084  1.00  0.00    -0.648 OA
ATOM     75  N   VAL C   6       4.116  25.196   9.216  1.00  0.00    -0.346 N 
ATOM     76  H   VAL C   6       5.097  24.689   9.653  1.00  0.00     0.163 HD
ATOM     77  CA  VAL C   6       4.542  26.375   8.469  1.00  0.00     0.092 C 
ATOM     78  HA  VAL C   6       3.659  26.997   7.969  1.00  0.00     0.088 H 
ATOM     79  C   VAL C   6       5.498  25.988   7.349  1.00  0.00     0.241 C 
ATOM     80  O   VAL C   6       6.654  26.423   7.332  1.00  0.00    -0.271 OA
ATOM     81  CB  VAL C   6       5.258  27.365   9.391  1.00  0.00    -0.033 C 
ATOM     82  HB  VAL C   6       6.303  26.831   9.621  1.00  0.00     0.042 H 
ATOM     83  CG1 VAL C   6       5.826  28.682   8.840  1.00  0.00    -0.071 C 
ATOM     84 1HG1 VAL C   6       7.020  28.764   8.728  1.00  0.00     0.028 H 
ATOM     85 2HG1 VAL C   6       5.438  29.061   7.773  1.00  0.00     0.028 H 
ATOM     86 3HG1 VAL C   6       5.642  29.665   9.503  1.00  0.00     0.028 H 
ATOM     87  CG2 VAL C   6       4.808  27.420  10.842  1.00  0.00    -0.071 C 
ATOM     88 1HG2 VAL C   6       4.017  26.751  11.440  1.00  0.00     0.028 H 
ATOM     89 2HG2 VAL C   6       5.705  27.402  11.642  1.00  0.00     0.028 H 
ATOM     90 3HG2 VAL C   6       4.269  28.472  11.058  1.00  0.00     0.028 H 
ATOM     91  N   PHE C   7       5.020  25.171   6.412  1.00  0.00    -0.346 N 
ATOM     92  H   PHE C   7       3.880  24.840   6.340  1.00  0.00     0.163 HD
ATOM     93  CA  PHE C   7       5.833  24.745   5.280  1.00  0.00     0.093 C 
ATOM     94  HA  PHE C   7       6.860  25.338   5.145  1.00  0.00     0.088 H 
ATOM     95  C   PHE C   7       5.113  25.018   3.965  1.00  0.00     0.241 C 
ATOM     96  O   PHE C   7       5.002  24.130   3.114  1.00  0.00    -0.271 OA
ATOM     97  CB  PHE C   7       6.127  23.246   5.363  1.00  0.00    -0.017 C 
ATOM     98  HB2 PHE C   7       6.922  23.311   6.250  1.00  0.00     0.043 H 
ATOM     99  HB3 PHE C   7       5.072  22.693   5.317  1.00  0.00     0.043 H 
ATOM    100  CG  PHE C   7       7.088  22.422   4.522  1.00  0.00    -0.069 A 
ATOM    101  CD1 PHE C   7       7.842  22.929   3.450  1.00  0.00    -0.080 A 
ATOM    102  HD1 PHE C   7       8.374  23.987   3.356  1.00  0.00     0.083 H 
ATOM    103  CE1 PHE C   7       8.543  22.032   2.624  1.00  0.00    -0.083 A 
ATOM    104  HE1 PHE C   7       9.214  22.388   1.710  1.00  0.00     0.083 H 
ATOM    105  CZ  PHE C   7       8.626  20.668   2.934  1.00  0.00    -0.086 A 
ATOM    106  HZ  PHE C   7       9.329  19.953   2.296  1.00  0.00     0.083 H 
ATOM    107  CE2 PHE C   7       7.958  20.165   4.061  1.00  0.00    -0.094 A 
ATOM    108  HE2 PHE C   7       8.262  19.064   4.391  1.00  0.00     0.077 H 
ATOM    109  CD2 PHE C   7       7.202  21.048   4.824  1.00  0.00    -0.005 A 
ATOM    110  HD2 PHE C   7       6.161  20.495   4.648  1.00  0.00     0.054 H 
ATOM    111  N   TYR C   8       4.620  26.244   3.793  1.00  0.00    -0.346 N 
ATOM    112  H   TYR C   8       5.196  27.152   4.300  1.00  0.00     0.163 HD
ATOM    113  CA  TYR C   8       3.916  26.633   2.546  1.00  0.00     0.093 C 
ATOM    114  HA  TYR C   8       3.025  25.846   2.453  1.00  0.00     0.088 H 
ATOM    115  C   TYR C   8       4.909  26.665   1.367  1.00  0.00     0.241 C 
ATOM    116  O   TYR C   8       6.025  27.178   1.500  1.00  0.00    -0.271 OA
ATOM    117  CB  TYR C   8       3.288  28.020   2.694  1.00  0.00    -0.014 C 
ATOM    118  HB2 TYR C   8       4.065  28.889   2.429  1.00  0.00     0.043 H 
ATOM    119  HB3 TYR C   8       2.432  28.097   1.859  1.00  0.00     0.043 H 
ATOM    120  CG  TYR C   8       2.579  28.444   3.946  1.00  0.00    -0.056 A 
ATOM    121  CD1 TYR C   8       1.358  27.870   4.341  1.00  0.00    -0.074 A 
ATOM    122  HD1 TYR C   8       0.589  27.240   3.690  1.00  0.00     0.084 H 
ATOM    123  CE1 TYR C   8       0.839  28.177   5.615  1.00  0.00    -0.051 A 
ATOM    124  HE1 TYR C   8      -0.213  27.765   5.983  1.00  0.00     0.087 H 
ATOM    125  CZ  TYR C   8       1.546  29.059   6.452  1.00  0.00     0.065 A 
ATOM    126  OH  TYR C   8       1.122  29.280   7.728  1.00  0.00    -0.361 OA
ATOM    127  HH  TYR C   8       1.768  30.116   8.259  1.00  0.00     0.217 HD
ATOM    128  CE2 TYR C   8       2.701  29.726   6.003  1.00  0.00    -0.051 A 
ATOM    129  HE2 TYR C   8       2.970  30.829   6.358  1.00  0.00     0.087 H 
ATOM    130  CD2 TYR C   8       3.200  29.432   4.724  1.00  0.00    -0.074 A 
ATOM    131  HD2 TYR C   8       4.023  30.227   4.399  1.00  0.00     0.084 H 
ATOM    132  N   LYS C   9       4.546  26.132   0.205  1.00  0.00    -0.345 N 
ATOM    133  H   LYS C   9       3.522  25.538   0.104  1.00  0.00     0.163 HD
ATOM    134  CA  LYS C   9       5.446  26.214  -0.946  1.00  0.00     0.096 C 
ATOM    135  HA  LYS C   9       6.589  26.039  -0.659  1.00  0.00     0.089 H 
ATOM    136  C   LYS C   9       5.417  27.680  -1.532  1.00  0.00     0.196 C 
ATOM    137  O   LYS C   9       4.546  28.498  -1.140  1.00  0.00    -0.646 OA
ATOM    138  CB  LYS C   9       5.010  25.222  -2.159  1.00  0.00    -0.037 C 
ATOM    139  HB2 LYS C   9       3.820  25.189  -2.120  1.00  0.00     0.036 H 
ATOM    140  HB3 LYS C   9       5.294  25.887  -3.111  1.00  0.00     0.036 H 
ATOM    141  CG  LYS C   9       5.778  23.924  -2.410  1.00  0.00    -0.061 C 
ATOM    142  HG2 LYS C   9       5.735  23.226  -1.441  1.00  0.00     0.033 H 
ATOM    143  HG3 LYS C   9       6.940  24.122  -2.606  1.00  0.00     0.033 H 
ATOM    144  CD  LYS C   9       4.971  23.417  -3.598  1.00  0.00    -0.043 C 
ATOM    145  HD2 LYS C   9       4.564  24.124  -4.472  1.00  0.00     0.035 H 
ATOM    146  HD3 LYS C   9       3.963  22.955  -3.138  1.00  0.00     0.035 H 
ATOM    147  CE  LYS C   9       5.564  22.132  -4.141  1.00  0.00     0.080 C 
ATOM    148  HE2 LYS C   9       4.712  21.381  -4.525  1.00  0.00     0.075 H 
ATOM    149  HE3 LYS C   9       6.187  21.416  -3.412  1.00  0.00     0.075 H 
ATOM    150  NZ  LYS C   9       6.367  22.529  -5.297  1.00  0.00    -0.079 N 
ATOM    151  HZ1 LYS C   9       6.625  21.528  -5.909  1.00  0.00     0.274 HD
ATOM    152  HZ2 LYS C   9       5.929  23.211  -6.181  1.00  0.00     0.274 HD
ATOM    153  HZ3 LYS C   9       7.463  22.963  -5.077  1.00  0.00     0.274 HD
ATOM    154  OXT LYS C   9       6.318  27.983  -2.412  1.00  0.00    -0.646 OA
ENDROOT
TORSDOF 43
