REMARK  0 active torsions:
REMARK  status: ('A' for Active; 'I' for Inactive)
REMARK       I    between atoms: N_1  and  CA_5 
REMARK       I    between atoms: CA_5  and  C_7 
REMARK       I    between atoms: CA_5  and  CB_9 
REMARK       I    between atoms: C_7  and  N_14 
REMARK       I    between atoms: CB_9  and  OG_12 
REMARK       I    between atoms: N_14  and  CA_16 
REMARK       I    between atoms: CA_16  and  CB_20 
REMARK       I    between atoms: CA_16  and  C_18 
REMARK       I    between atoms: C_18  and  N_28 
REMARK       I    between atoms: CB_20  and  CG2_22 
REMARK       I    between atoms: CB_20  and  OG1_26 
REMARK       I    between atoms: N_28  and  CA_30 
REMARK       I    between atoms: CA_30  and  CB_34 
REMARK       I    between atoms: CA_30  and  C_32 
REMARK       I    between atoms: C_32  and  N_48 
REMARK       I    between atoms: CB_34  and  CG_37 
REMARK       I    between atoms: N_48  and  CA_50 
REMARK       I    between atoms: CA_50  and  C_52 
REMARK       I    between atoms: CA_50  and  CB_54 
REMARK       I    between atoms: C_52  and  N_60 
REMARK       I    between atoms: CB_54  and  CG_57 
REMARK       I    between atoms: N_60  and  CA_62 
REMARK       I    between atoms: CA_62  and  C_64 
REMARK       I    between atoms: CA_62  and  CB_66 
REMARK       I    between atoms: C_64  and  N_75 
REMARK       I    between atoms: CB_66  and  CG_69 
REMARK       I    between atoms: CG_69  and  CD_72 
REMARK       I    between atoms: N_75  and  CA_77 
REMARK       I    between atoms: CA_77  and  C_79 
REMARK       I    between atoms: CA_77  and  CB_81 
REMARK       I    between atoms: C_79  and  N_91 
REMARK       I    between atoms: CB_81  and  CG1_83 
REMARK       I    between atoms: CB_81  and  CG2_87 
REMARK       I    between atoms: N_91  and  CA_93 
REMARK       I    between atoms: CA_93  and  CB_97 
REMARK       I    between atoms: CA_93  and  C_95 
REMARK       I    between atoms: C_95  and  N_111 
REMARK       I    between atoms: CB_97  and  CG_100 
REMARK       I    between atoms: N_111  and  CA_113 
REMARK       I    between atoms: CA_113  and  C_115 
REMARK       I    between atoms: CA_113  and  CB_117 
REMARK       I    between atoms: N_132  and  C_115 
REMARK       I    between atoms: CB_117  and  CG_120 
REMARK       I    between atoms: CZ_125  and  OH_126 
REMARK       I    between atoms: N_132  and  CA_134 
REMARK       I    between atoms: CA_134  and  C_136 
REMARK       I    between atoms: CA_134  and  CB_138 
REMARK       I    between atoms: CB_138  and  CG_141 
REMARK       I    between atoms: CG_141  and  CD_144 
REMARK       I    between atoms: CD_144  and  CE_147 
REMARK       I    between atoms: CE_147  and  NZ_150 
ROOT
ATOM      1  N   SER C   1       3.569  10.245  15.174  1.00  0.00    -0.064 N 
ATOM      2  H   SER C   1       4.740   9.991  15.180  1.00  0.00     0.275 HD
ATOM      3  H2  SER C   1       3.173   9.997  14.071  1.00  0.00     0.275 HD
ATOM      4  H3  SER C   1       3.100   9.346  15.817  1.00  0.00     0.275 HD
ATOM      5  CA  SER C   1       3.063  11.615  15.582  1.00  0.00     0.195 C 
ATOM      6  HA  SER C   1       1.901  11.458  15.799  1.00  0.00     0.102 H 
ATOM      7  C   SER C   1       3.501  12.536  14.439  1.00  0.00     0.251 C 
ATOM      8  O   SER C   1       4.647  12.524  13.986  1.00  0.00    -0.271 OA
ATOM      9  CB  SER C   1       3.799  12.126  16.857  1.00  0.00     0.051 C 
ATOM     10  HB2 SER C   1       4.964  12.372  16.753  1.00  0.00     0.077 H 
ATOM     11  HB3 SER C   1       3.208  13.059  17.315  1.00  0.00     0.077 H 
ATOM     12  OG  SER C   1       3.658  11.169  17.879  1.00  0.00    -0.398 OA
ATOM     13  HG  SER C   1       4.327  11.458  18.814  1.00  0.00     0.209 HD
ATOM     14  N   THR C   2       2.645  13.462  14.123  1.00  0.00    -0.344 N 
ATOM     15  H   THR C   2       1.844  13.836  14.919  1.00  0.00     0.163 HD
ATOM     16  CA  THR C   2       2.846  14.378  12.987  1.00  0.00     0.113 C 
ATOM     17  HA  THR C   2       3.296  13.624  12.178  1.00  0.00     0.091 H 
ATOM     18  C   THR C   2       3.766  15.521  13.358  1.00  0.00     0.243 C 
ATOM     19  O   THR C   2       3.873  15.884  14.534  1.00  0.00    -0.271 OA
ATOM     20  CB  THR C   2       1.511  14.974  12.535  1.00  0.00     0.060 C 
ATOM     21  HB  THR C   2       1.599  14.690  11.372  1.00  0.00     0.086 H 
ATOM     22  CG2 THR C   2       1.281  16.451  12.260  1.00  0.00    -0.050 C 
ATOM     23 1HG2 THR C   2       1.689  16.949  11.251  1.00  0.00     0.031 H 
ATOM     24 2HG2 THR C   2       1.385  17.049  13.291  1.00  0.00     0.031 H 
ATOM     25 3HG2 THR C   2       0.109  16.637  12.061  1.00  0.00     0.031 H 
ATOM     26  OG1 THR C   2       0.378  14.148  12.526  1.00  0.00    -0.393 OA
ATOM     27  HG1 THR C   2      -0.349  14.443  13.416  1.00  0.00     0.210 HD
ATOM     28  N   PHE C   3       4.439  16.099  12.364  1.00  0.00    -0.346 N 
ATOM     29  H   PHE C   3       4.435  15.574  11.298  1.00  0.00     0.163 HD
ATOM     30  CA  PHE C   3       5.339  17.221  12.598  1.00  0.00     0.088 C 
ATOM     31  HA  PHE C   3       5.862  16.988  13.646  1.00  0.00     0.087 H 
ATOM     32  C   PHE C   3       4.562  18.529  12.671  1.00  0.00     0.221 C 
ATOM     33  O   PHE C   3       3.328  18.531  12.605  1.00  0.00    -0.278 OA
ATOM     34  CB  PHE C   3       6.364  17.334  11.468  1.00  0.00    -0.015 C 
ATOM     35  HB2 PHE C   3       7.366  17.092  12.079  1.00  0.00     0.043 H 
ATOM     36  HB3 PHE C   3       6.416  16.439  10.673  1.00  0.00     0.043 H 
ATOM     37  CG  PHE C   3       6.752  18.452  10.536  1.00  0.00    -0.059 A 
ATOM     38  CD1 PHE C   3       5.780  18.925   9.645  1.00  0.00    -0.088 A 
ATOM     39  HD1 PHE C   3       5.114  18.043   9.203  1.00  0.00     0.078 H 
ATOM     40  CE1 PHE C   3       6.140  19.923   8.725  1.00  0.00    -0.011 A 
ATOM     41  HE1 PHE C   3       6.266  19.382   7.667  1.00  0.00     0.053 H 
ATOM     42  CZ  PHE C   3       7.371  20.589   8.853  1.00  0.00    -0.095 A 
ATOM     43  HZ  PHE C   3       8.041  21.179   8.070  1.00  0.00     0.077 H 
ATOM     44  CE2 PHE C   3       8.378  20.017   9.647  1.00  0.00    -0.085 A 
ATOM     45  HE2 PHE C   3       9.539  20.258   9.538  1.00  0.00     0.083 H 
ATOM     46  CD2 PHE C   3       8.064  18.980  10.547  1.00  0.00    -0.077 A 
ATOM     47  HD2 PHE C   3       9.047  18.477  10.989  1.00  0.00     0.084 H 
ATOM     48  N   ASP C   4       5.276  19.646  12.807  1.00  0.00    -0.247 NA
ATOM     49  H   ASP C   4       5.941  19.454  13.778  1.00  0.00     0.131 HD
ATOM     50  CA  ASP C   4       4.642  20.957  12.868  1.00  0.00     0.085 C 
ATOM     51  HA  ASP C   4       3.687  20.965  13.586  1.00  0.00     0.080 H 
ATOM     52  C   ASP C   4       4.139  21.377  11.493  1.00  0.00     0.236 C 
ATOM     53  O   ASP C   4       3.185  22.154  11.384  1.00  0.00    -0.272 OA
ATOM     54  CB  ASP C   4       5.636  22.012  13.358  1.00  0.00     0.039 C 
ATOM     55  HB2 ASP C   4       5.147  23.095  13.451  1.00  0.00     0.052 H 
ATOM     56  HB3 ASP C   4       5.668  21.843  14.548  1.00  0.00     0.052 H 
ATOM     57  CG  ASP C   4       7.180  21.809  13.288  1.00  0.00     0.174 C 
ATOM     58  OD1 ASP C   4       7.815  20.824  12.828  1.00  0.00    -0.648 OA
ATOM     59  OD2 ASP C   4       7.789  22.848  13.583  1.00  0.00    -0.648 OA
ATOM     60  N   GLU C   5       4.775  20.869  10.438  1.00  0.00    -0.346 N 
ATOM     61  H   GLU C   5       5.903  20.927  10.800  1.00  0.00     0.163 HD
ATOM     62  CA  GLU C   5       4.370  21.184   9.074  1.00  0.00     0.090 C 
ATOM     63  HA  GLU C   5       4.724  21.126   7.938  1.00  0.00     0.087 H 
ATOM     64  C   GLU C   5       4.403  22.689   8.836  1.00  0.00     0.241 C 
ATOM     65  O   GLU C   5       3.688  23.203   7.970  1.00  0.00    -0.271 OA
ATOM     66  CB  GLU C   5       2.948  20.687   8.807  1.00  0.00    -0.029 C 
ATOM     67  HB2 GLU C   5       2.059  21.484   8.893  1.00  0.00     0.037 H 
ATOM     68  HB3 GLU C   5       2.598  19.849   9.585  1.00  0.00     0.037 H 
ATOM     69  CG  GLU C   5       2.777  19.947   7.470  1.00  0.00     0.018 C 
ATOM     70  HG2 GLU C   5       2.701  20.666   6.517  1.00  0.00     0.049 H 
ATOM     71  HG3 GLU C   5       3.510  19.085   7.082  1.00  0.00     0.049 H 
ATOM     72  CD  GLU C   5       1.440  19.195   7.395  1.00  0.00     0.172 C 
ATOM     73  OE1 GLU C   5       0.546  19.786   6.732  1.00  0.00    -0.648 OA
ATOM     74  OE2 GLU C   5       1.547  17.939   7.431  1.00  0.00    -0.648 OA
ATOM     75  N   VAL C   6       5.229  23.401   9.601  1.00  0.00    -0.346 N 
ATOM     76  H   VAL C   6       6.209  23.026  10.154  1.00  0.00     0.163 HD
ATOM     77  CA  VAL C   6       5.359  24.846   9.450  1.00  0.00     0.087 C 
ATOM     78  HA  VAL C   6       4.316  25.389   9.639  1.00  0.00     0.087 H 
ATOM     79  C   VAL C   6       5.821  25.202   8.044  1.00  0.00     0.221 C 
ATOM     80  O   VAL C   6       5.931  26.383   7.699  1.00  0.00    -0.278 OA
ATOM     81  CB  VAL C   6       6.380  25.401  10.446  1.00  0.00    -0.033 C 
ATOM     82  HB  VAL C   6       7.465  24.908  10.525  1.00  0.00     0.042 H 
ATOM     83  CG1 VAL C   6       6.777  26.807  10.048  1.00  0.00    -0.071 C 
ATOM     84 1HG1 VAL C   6       5.973  27.661   9.797  1.00  0.00     0.028 H 
ATOM     85 2HG1 VAL C   6       7.362  27.378  10.931  1.00  0.00     0.028 H 
ATOM     86 3HG1 VAL C   6       7.665  26.903   9.245  1.00  0.00     0.028 H 
ATOM     87  CG2 VAL C   6       5.828  25.461  11.895  1.00  0.00    -0.071 C 
ATOM     88 1HG2 VAL C   6       6.669  25.357  12.743  1.00  0.00     0.028 H 
ATOM     89 2HG2 VAL C   6       4.823  24.875  12.172  1.00  0.00     0.028 H 
ATOM     90 3HG2 VAL C   6       5.401  26.542  12.206  1.00  0.00     0.028 H 
ATOM     91  N   PHE C   7       6.093  24.184   7.229  1.00  0.00    -0.247 NA
ATOM     92  H   PHE C   7       7.029  23.698   7.781  1.00  0.00     0.131 HD
ATOM     93  CA  PHE C   7       6.525  24.398   5.854  1.00  0.00     0.080 C 
ATOM     94  HA  PHE C   7       7.246  25.348   5.817  1.00  0.00     0.079 H 
ATOM     95  C   PHE C   7       5.326  24.476   4.918  1.00  0.00     0.236 C 
ATOM     96  O   PHE C   7       4.452  23.603   4.942  1.00  0.00    -0.272 OA
ATOM     97  CB  PHE C   7       7.423  23.249   5.387  1.00  0.00    -0.018 C 
ATOM     98  HB2 PHE C   7       8.522  23.726   5.349  1.00  0.00     0.043 H 
ATOM     99  HB3 PHE C   7       7.615  22.279   6.053  1.00  0.00     0.043 H 
ATOM    100  CG  PHE C   7       7.397  22.349   4.135  1.00  0.00    -0.056 A 
ATOM    101  CD1 PHE C   7       6.382  21.449   3.773  1.00  0.00    -0.077 A 
ATOM    102  HD1 PHE C   7       5.254  21.316   4.117  1.00  0.00     0.084 H 
ATOM    103  CE1 PHE C   7       6.617  20.397   2.872  1.00  0.00    -0.082 A 
ATOM    104  HE1 PHE C   7       5.958  19.411   2.787  1.00  0.00     0.083 H 
ATOM    105  CZ  PHE C   7       7.767  20.394   2.076  1.00  0.00    -0.083 A 
ATOM    106  HZ  PHE C   7       7.922  19.631   1.180  1.00  0.00     0.083 H 
ATOM    107  CE2 PHE C   7       8.758  21.344   2.366  1.00  0.00    -0.082 A 
ATOM    108  HE2 PHE C   7       9.856  21.149   1.955  1.00  0.00     0.083 H 
ATOM    109  CD2 PHE C   7       8.478  22.407   3.247  1.00  0.00    -0.077 A 
ATOM    110  HD2 PHE C   7       9.149  23.327   2.907  1.00  0.00     0.084 H 
ATOM    111  N   TYR C   8       5.276  25.520   4.091  1.00  0.00    -0.346 N 
ATOM    112  H   TYR C   8       6.115  26.361   4.061  1.00  0.00     0.163 HD
ATOM    113  CA  TYR C   8       4.166  25.693   3.120  1.00  0.00     0.093 C 
ATOM    114  HA  TYR C   8       3.878  24.669   2.584  1.00  0.00     0.088 H 
ATOM    115  C   TYR C   8       4.643  26.532   1.918  1.00  0.00     0.241 C 
ATOM    116  O   TYR C   8       5.328  27.545   2.091  1.00  0.00    -0.271 OA
ATOM    117  CB  TYR C   8       2.984  26.409   3.777  1.00  0.00    -0.014 C 
ATOM    118  HB2 TYR C   8       2.011  26.227   3.105  1.00  0.00     0.043 H 
ATOM    119  HB3 TYR C   8       3.138  27.591   3.694  1.00  0.00     0.043 H 
ATOM    120  CG  TYR C   8       2.448  26.170   5.200  1.00  0.00    -0.056 A 
ATOM    121  CD1 TYR C   8       1.747  25.007   5.516  1.00  0.00    -0.074 A 
ATOM    122  HD1 TYR C   8       1.057  24.421   4.745  1.00  0.00     0.084 H 
ATOM    123  CE1 TYR C   8       1.429  24.703   6.851  1.00  0.00    -0.051 A 
ATOM    124  HE1 TYR C   8       0.453  24.059   7.064  1.00  0.00     0.087 H 
ATOM    125  CZ  TYR C   8       1.791  25.586   7.901  1.00  0.00     0.065 A 
ATOM    126  OH  TYR C   8       1.621  25.228   9.212  1.00  0.00    -0.361 OA
ATOM    127  HH  TYR C   8       0.871  25.983   9.739  1.00  0.00     0.217 HD
ATOM    128  CE2 TYR C   8       2.326  26.848   7.538  1.00  0.00    -0.051 A 
ATOM    129  HE2 TYR C   8       2.190  27.787   8.254  1.00  0.00     0.087 H 
ATOM    130  CD2 TYR C   8       2.591  27.142   6.191  1.00  0.00    -0.074 A 
ATOM    131  HD2 TYR C   8       2.696  28.309   5.990  1.00  0.00     0.084 H 
ATOM    132  N   LYS C   9       4.546  26.132   0.205  1.00  0.00    -0.345 N 
ATOM    133  H   LYS C   9       3.362  26.123   0.127  1.00  0.00     0.163 HD
ATOM    134  CA  LYS C   9       5.446  26.214  -0.946  1.00  0.00     0.096 C 
ATOM    135  HA  LYS C   9       6.560  26.103  -0.542  1.00  0.00     0.089 H 
ATOM    136  C   LYS C   9       5.417  27.680  -1.532  1.00  0.00     0.196 C 
ATOM    137  O   LYS C   9       4.546  28.498  -1.140  1.00  0.00    -0.646 OA
ATOM    138  CB  LYS C   9       5.010  25.222  -2.159  1.00  0.00    -0.037 C 
ATOM    139  HB2 LYS C   9       5.095  25.937  -3.113  1.00  0.00     0.036 H 
ATOM    140  HB3 LYS C   9       3.842  25.034  -1.992  1.00  0.00     0.036 H 
ATOM    141  CG  LYS C   9       5.810  23.968  -2.474  1.00  0.00    -0.061 C 
ATOM    142  HG2 LYS C   9       5.872  23.273  -1.504  1.00  0.00     0.033 H 
ATOM    143  HG3 LYS C   9       6.945  24.224  -2.749  1.00  0.00     0.033 H 
ATOM    144  CD  LYS C   9       5.029  23.327  -3.614  1.00  0.00    -0.043 C 
ATOM    145  HD2 LYS C   9       4.001  22.898  -3.174  1.00  0.00     0.035 H 
ATOM    146  HD3 LYS C   9       4.678  24.010  -4.531  1.00  0.00     0.035 H 
ATOM    147  CE  LYS C   9       5.637  22.045  -4.217  1.00  0.00     0.080 C 
ATOM    148  HE2 LYS C   9       6.279  21.415  -3.427  1.00  0.00     0.075 H 
ATOM    149  HE3 LYS C   9       4.790  21.269  -4.556  1.00  0.00     0.075 H 
ATOM    150  NZ  LYS C   9       6.454  22.333  -5.419  1.00  0.00    -0.079 N 
ATOM    151  HZ1 LYS C   9       6.982  23.393  -5.602  1.00  0.00     0.274 HD
ATOM    152  HZ2 LYS C   9       5.855  22.140  -6.440  1.00  0.00     0.274 HD
ATOM    153  HZ3 LYS C   9       7.386  21.582  -5.497  1.00  0.00     0.274 HD
ATOM    154  OXT LYS C   9       6.228  28.150  -2.348  1.00  0.00    -0.646 OA
ENDROOT
TORSDOF 43
